geometry optimzed in LAMMPS
_audit_creation_date              2020-11-30 
_audit_creation_method            'lammps2cif' 
_symmetry_space_group_name_H-M    'P1' 
_symmetry_Int_Tables_number       1 
_symmetry_cell_setting            triclinic 
loop_ 
_symmetry_equiv_pos_as_xyz 
  x,y,z 
_cell_length_a                    41.538617440432326 
_cell_length_b                    33.404411212447854 
_cell_length_c                    33.57176202811206 
_cell_angle_alpha                 89.59580578580703 
_cell_angle_beta                  89.89316074174658 
_cell_angle_gamma                 91.06745822184895 
loop_ 
_atom_site_label 
_atom_site_type_symbol 
_atom_site_fract_x 
_atom_site_fract_y 
_atom_site_fract_z 
_atom_site_charge 
O1          O  0.45242122  0.41627394  0.41911467    -0.73170
O2          O  0.41450048  0.45066775  0.45377620    -0.52080
C3          C  0.42315308  0.42513474  0.42743876     0.80560
O4          O  0.05899339  0.41741717  0.08079915    -0.57770
O5          O  0.09783456  0.45190609  0.04625177    -0.50800
C6          C  0.08866161  0.42608789  0.07278472     0.72570
O7          O  0.45033297  0.41693394  0.08128160    -0.72330
O8          O  0.41333618  0.44990986  0.04355054    -0.52890
C9          C  0.42126794  0.42536106  0.07135883     0.78570
O10         O  0.06100353  0.41576498  0.42329126    -0.57470
O11         O  0.09889987  0.45045290  0.45860868    -0.50590
C12         C  0.09045923  0.42397468  0.43280931     0.75170
Zr13       Zr  0.50646842  0.43577299  0.44104612     2.54710
O14         O  0.50490914  0.36290431  0.44275649    -0.78040
O15         O  0.00909003  0.43859918  0.36861057    -0.91460
Zr16       Zr  0.50498583  0.43461601  0.05902795     2.64680
O17         O  0.50346160  0.36193501  0.05376019    -0.96410
O18         O  0.00510303  0.43189686  0.13149699    -0.78470
O19         O  0.47413057  0.43388744  0.99959372    -0.81830
O20         O  0.03707651  0.43465174  0.50054012    -2.16540
O21         O  0.06163371  0.07353373  0.42138583    -0.65220
O22         O  0.09938899  0.03904375  0.45603082    -0.49790
C23         C  0.09097897  0.06531347  0.42995830     0.73550
O24         O  0.45312130  0.07329769  0.07691360    -0.58130
O25         O  0.41470644  0.03750996  0.04382922    -0.50110
C26         C  0.42363584  0.06421147  0.06918211     0.75350
O27         O  0.06043007  0.07350593  0.07849454    -0.69520
O28         O  0.09873911  0.04062445  0.04387854    -0.48200
C29         C  0.08989299  0.06655235  0.06972357     0.76740
O30         O  0.45292404  0.07409455  0.42338731    -0.64850
O31         O  0.41390630  0.03996229  0.45836191    -0.52050
C32         C  0.42329574  0.06594188  0.43220948     0.75120
Zr33       Zr  0.00719805  0.05411296  0.44139795     2.77540
O34         O  0.50792053  0.12700385  0.44303420    -0.95600
O35         O  0.50640839  0.05323392  0.36892268    -0.76420
Zr36       Zr  0.00667201  0.05272809  0.05890129     2.70060
O37         O  0.00782725  0.12559006  0.05947115    -0.77670
O38         O  0.50535251  0.04830223  0.13130260    -0.96750
Zr39       Zr  0.44402579  0.99402155  0.99953223     2.21500
Zr40       Zr  0.06878497  0.49506011  0.50079784     2.11130
O41         O  0.03833496  0.05487715  0.50034192    -2.45440
O42         O  0.47550869  0.05431411  0.99997511    -0.77460
O43         O  0.03839382  0.49532281  0.44057936    -0.69660
O44         O  0.47448943  0.99368320  0.05965982    -2.30620
O45         O  0.47543959  0.99468989  0.43991407    -2.26820
O46         O  0.03743385  0.49386435  0.06039232    -0.71420
H47         H  0.05062223  0.41146611  0.50086586     0.80580
H48         H  0.46066623  0.99378383  0.08281959     0.81670
H49         H  0.05222486  0.07838603  0.50040437     0.83890
H50         H  0.46187130  0.99502844  0.41658464     0.81500
H51         H  0.49553805  0.45747621  0.13974401     0.44530
H52         H  0.02428098  0.03215987  0.13840209     0.43500
H53         H  0.49914711  0.13340363  0.03315315     0.43180
H54         H  0.02768234  0.13440503  0.45791384     0.41120
H55         H  0.01960629  0.02998166  0.36172488     0.44250
H56         H  0.49057986  0.45504262  0.36056079     0.39030
H57         H  0.49019715  0.35596861  0.46510032     0.45150
H58         H  0.02408679  0.35511256  0.04088130     0.41560
H59         H  0.01253494  0.13533214  0.41521075     0.46480
H60         H  0.00318829  0.41113669  0.36002115     0.45210
H61         H  0.50564991  0.35226206  0.08155257     0.45340
H62         H  0.01100391  0.07569934  0.14032011     0.45700
C63         C  0.18757293  0.15578561  0.33441781    -0.00370
C64         C  0.18870931  0.33768925  0.34139430    -0.00370
C65         C  0.18518823  0.33974856  0.16827616    -0.00370
C66         C  0.18495725  0.15843708  0.16420923    -0.00370
C67         C  0.32943622  0.15384247  0.33392884    -0.00370
C68         C  0.32658197  0.15463667  0.15823964    -0.00370
C69         C  0.32378841  0.33081794  0.15937398    -0.00370
C70         C  0.32720487  0.32902427  0.33998396    -0.00370
C71         C  0.35965823  0.33598000  0.22728898     0.25720
C72         C  0.33073372  0.32611400  0.20617221    -0.22390
C73         C  0.30637967  0.30882177  0.23038300     0.20620
C74         C  0.30800175  0.30694256  0.27127607     0.25660
C75         C  0.33279710  0.32535632  0.29318223    -0.22340
C76         C  0.36043101  0.33665994  0.27008852     0.20560
F77         F  0.38868874  0.34600239  0.28821397    -0.12290
F78         F  0.38753874  0.34329439  0.20725296    -0.14660
F79         F  0.28266909  0.28926497  0.28948326    -0.14660
F80         F  0.27830739  0.29617356  0.21547838    -0.12290
C81         C  0.29959959  0.22196348  0.15916783     0.25720
C82         C  0.32591375  0.19994977  0.14549461    -0.22390
C83         C  0.35164839  0.22335487  0.12866903     0.20620
C84         C  0.35221749  0.26544819  0.13411579     0.25660
C85         C  0.32357577  0.28621039  0.14422167    -0.22340
C86         C  0.29604765  0.26133279  0.14909384     0.20560
F87         F  0.26566801  0.27434843  0.15085174    -0.12290
F88         F  0.27775084  0.20607646  0.18494018    -0.14660
F89         F  0.38111217  0.28486991  0.13130272    -0.14660
F90         F  0.37792571  0.20674302  0.11228496    -0.12290
C91         C  0.34134368  0.11761247  0.22514447     0.25720
C92         C  0.33718662  0.15365291  0.20360257    -0.22390
C93         C  0.34593814  0.18871636  0.22518150     0.20620
C94         C  0.34650860  0.18930913  0.26623792     0.25660
C95         C  0.34102455  0.15400762  0.28915387    -0.22340
C96         C  0.34086261  0.11745945  0.26715444     0.20560
F97         F  0.33746722  0.08168374  0.28632146    -0.12290
F98         F  0.34403613  0.08224476  0.20578327    -0.14660
F99         F  0.34939076  0.22640831  0.28129101    -0.14660
F100        F  0.35515390  0.22373489  0.20785926    -0.12290
C101        C  0.30039008  0.21889031  0.35721232     0.25720
C102        C  0.32908309  0.19784985  0.35050234    -0.22390
C103        C  0.35806014  0.22063048  0.35541742     0.20620
C104        C  0.35754550  0.26289505  0.35422626     0.25660
C105        C  0.32804629  0.28386888  0.35384349    -0.22340
C106        C  0.29996889  0.25996648  0.35974565     0.20560
F107        F  0.26999637  0.27444879  0.36050646    -0.12290
F108        F  0.27086692  0.20192647  0.35754796    -0.14660
F109        F  0.38601803  0.28293844  0.34938109    -0.14660
F110        F  0.38708128  0.20287954  0.35264244    -0.12290
C111        C  0.23884384  0.11913562  0.18315841     0.25720
C112        C  0.22106179  0.14458918  0.15766209    -0.22390
C113        C  0.23814643  0.15753991  0.12300770     0.20620
C114        C  0.27175117  0.15327412  0.11950299     0.25660
C115        C  0.29047882  0.13831885  0.15180130    -0.22340
C116        C  0.27240442  0.11662282  0.18071471     0.20560
F117        F  0.28580704  0.08914889  0.20474534    -0.12290
F118        F  0.22486809  0.09252101  0.20819598    -0.14660
F119        F  0.28651155  0.16907035  0.08666734    -0.14660
F120        F  0.22246650  0.17586554  0.09271810    -0.12290
C121        C  0.17147272  0.27118456  0.12829322     0.25720
C122        C  0.18648222  0.29279601  0.15996460    -0.22390
C123        C  0.20501924  0.26959279  0.18618966     0.20620
C124        C  0.20588688  0.22798820  0.18445049     0.25660
C125        C  0.18716350  0.20565480  0.15726206    -0.22340
C126        C  0.17169325  0.22848569  0.12706703     0.20560
F127        F  0.15763350  0.21022820  0.09546008    -0.12290
F128        F  0.15740745  0.29070571  0.09757503    -0.14660
F129        F  0.22285528  0.20885955  0.21279120    -0.14660
F130        F  0.22083942  0.28753044  0.21631511    -0.12290
C131        C  0.23623180  0.34430734  0.12312903     0.25720
C132        C  0.22134863  0.35406438  0.15997200    -0.22390
C133        C  0.24210948  0.37393405  0.18731429     0.20620
C134        C  0.27561116  0.37364696  0.18289057     0.25660
C135        C  0.29003691  0.35101070  0.15278336    -0.22340
C136        C  0.27012927  0.34369229  0.11918359     0.20560
F137        F  0.28233221  0.32833559  0.08530791    -0.12290
F138        F  0.21811298  0.33120464  0.09208690    -0.14660
F139        F  0.29380533  0.39308995  0.21032598    -0.14660
F140        F  0.23139343  0.39525707  0.21793437    -0.12290
C141        C  0.15934556  0.31370919  0.27631587     0.25720
C142        C  0.17457009  0.34488775  0.29767654    -0.22390
C143        C  0.17321031  0.38205522  0.27686131     0.20620
C144        C  0.17262944  0.38253249  0.23417786     0.25660
C145        C  0.17298753  0.34581489  0.21297078    -0.22340
C146        C  0.15851009  0.31417318  0.23500467     0.20560
F147        F  0.14265905  0.28382474  0.21714038    -0.12290
F148        F  0.14447364  0.28284161  0.29498160    -0.14660
F149        F  0.17406011  0.41804057  0.21426428    -0.14660
F150        F  0.17444804  0.41713013  0.29704240    -0.12290
C151        C  0.24174158  0.34432941  0.38311133     0.25720
C152        C  0.22483519  0.35349235  0.34739288    -0.22390
C153        C  0.24402484  0.37351150  0.31815135     0.20620
C154        C  0.27761762  0.37132964  0.31847582     0.25660
C155        C  0.29361567  0.34934210  0.34811989    -0.22340
C156        C  0.27595677  0.34468695  0.38418511     0.20560
F157        F  0.29053703  0.33128391  0.41765238    -0.12290
F158        F  0.22536777  0.33082106  0.41568810    -0.14660
F159        F  0.29426465  0.39034477  0.28898183    -0.14660
F160        F  0.23182135  0.39841668  0.29098791    -0.12290
C161        C  0.17055952  0.11315954  0.27090100     0.25720
C162        C  0.17112009  0.14997709  0.29234778    -0.22390
C163        C  0.15733234  0.18183635  0.27160267     0.20620
C164        C  0.15690968  0.18232571  0.23019935     0.25660
C165        C  0.17090870  0.15120445  0.20806190    -0.22340
C166        C  0.16880122  0.11393250  0.22846837     0.20560
F167        F  0.16744773  0.07903345  0.20796482    -0.12290
F168        F  0.17614006  0.07792515  0.28963942    -0.14660
F169        F  0.14176169  0.21270521  0.21215030    -0.14660
F170        F  0.14337085  0.21194263  0.29101812    -0.12290
C171        C  0.24102161  0.13108481  0.36906617     0.25720
C172        C  0.22296140  0.13881882  0.33396075    -0.22390
C173        C  0.24084881  0.13772975  0.29832387     0.20620
C174        C  0.27398317  0.14091964  0.29812941     0.25660
C175        C  0.29330996  0.13564786  0.33298434    -0.22340
C176        C  0.27484122  0.12462142  0.36758917     0.20560
F177        F  0.28870792  0.11097965  0.40117664    -0.12290
F178        F  0.22659431  0.13213137  0.40534045    -0.14660
F179        F  0.28509995  0.15635093  0.26330250    -0.14660
F180        F  0.22758117  0.14460470  0.26248114    -0.12290
C181        C  0.20943774  0.22801757  0.31716440     0.25720
C182        C  0.19216603  0.20275770  0.34421449    -0.22390
C183        C  0.17984072  0.22330514  0.37809157     0.20620
C184        C  0.17895251  0.26617520  0.37952557     0.25660
C185        C  0.19174721  0.29044637  0.34796640    -0.22340
C186        C  0.20933411  0.26967058  0.31926699     0.20560
F187        F  0.22446421  0.29047292  0.28994396    -0.12290
F188        F  0.22586587  0.21327765  0.28636287    -0.14660
F189        F  0.16640476  0.28330404  0.41243958    -0.14660
F190        F  0.16930683  0.20254128  0.41056943    -0.12290
C191        C  0.10991542  0.12633478  0.39249407     0.25720
C192        C  0.11646255  0.08827357  0.40805681    -0.22390
C193        C  0.14665540  0.07186167  0.40034708     0.20620
C194        C  0.16965694  0.09280450  0.37725120     0.25660
C195        C  0.16404880  0.13243560  0.36304324    -0.22340
C196        C  0.13279571  0.14748104  0.36993320     0.20560
F197        F  0.12363224  0.18302136  0.35456915    -0.12290
F198        F  0.08099814  0.14353608  0.39887369    -0.14660
F199        F  0.19596994  0.07208052  0.36638441    -0.14660
F200        F  0.15332056  0.03421783  0.41295009    -0.12290
C201        C  0.16905798  0.39780575  0.11926581     0.25720
C202        C  0.16090605  0.36237078  0.14123702    -0.22390
C203        C  0.12810457  0.34993562  0.14065954     0.20620
C204        C  0.10521195  0.37013498  0.11832090     0.25660
C205        C  0.11367223  0.40442827  0.09588231    -0.22340
C206        C  0.14595699  0.41787954  0.09659753     0.20560
F207        F  0.15527386  0.45150725  0.07638064    -0.12290
F208        F  0.19882472  0.41506689  0.12069060    -0.14660
F209        F  0.07453377  0.35531356  0.11860753    -0.14660
F210        F  0.11766110  0.31710247  0.16091176    -0.12290
C211        C  0.40762246  0.11247451  0.12232518     0.25720
C212        C  0.39866733  0.08622102  0.09150683    -0.22390
C213        C  0.36580136  0.08137194  0.08269107     0.20620
C214        C  0.34251584  0.10241917  0.10366601     0.25660
C215        C  0.35134862  0.13041482  0.13374218    -0.22340
C216        C  0.38465123  0.13403515  0.14281366     0.20560
F217        F  0.39568754  0.15945287  0.17130229    -0.12290
F218        F  0.43889365  0.11768829  0.13322993    -0.14660
F219        F  0.31154382  0.09436212  0.09362828    -0.14660
F220        F  0.35577373  0.05608141  0.05354248    -0.12290
C221        C  0.12858208  0.14610711  0.13499798     0.25720
C222        C  0.16148377  0.13582351  0.13560980    -0.22390
C223        C  0.17025432  0.10171563  0.11285628     0.20620
C224        C  0.14735515  0.08002798  0.09080516     0.25660
C225        C  0.11482331  0.09062279  0.09112313    -0.22340
C226        C  0.10594227  0.12434940  0.11315561     0.20560
F227        F  0.07500225  0.13681784  0.11395298    -0.12290
F228        F  0.11766115  0.17776433  0.15551633    -0.14660
F229        F  0.15714593  0.04750512  0.07031681    -0.14660
F230        F  0.20043852  0.08702312  0.11282044    -0.12290
C231        C  0.36291710  0.39311300  0.34861469     0.25720
C232        C  0.35238539  0.35501233  0.36313029    -0.22390
C233        C  0.36289955  0.34403566  0.40206719     0.20620
C234        C  0.38575110  0.36710696  0.42240582     0.25660
C235        C  0.39773493  0.40284722  0.40611702    -0.22340
C236        C  0.38595093  0.41611405  0.36937653     0.20560
F237        F  0.39690873  0.45128942  0.35345718    -0.12290
F238        F  0.35143519  0.40823702  0.31401083    -0.14660
F239        F  0.39649870  0.35417854  0.45829772    -0.14660
F240        F  0.35097456  0.31130912  0.42162182    -0.12290
C241        C  0.37321995  0.10715694  0.42623389     0.25720
C242        C  0.39879092  0.08694945  0.40861870    -0.22390
C243        C  0.40341452  0.09048168  0.36764801     0.20620
C244        C  0.38282856  0.11292576  0.34429344     0.25660
C245        C  0.35406487  0.12977580  0.36024413    -0.22340
C246        C  0.35199982  0.12955598  0.40263448     0.20560
F247        F  0.33201382  0.15474324  0.42183418    -0.12290
F248        F  0.37022987  0.10778973  0.46650738    -0.14660
F249        F  0.39446917  0.12157552  0.30744164    -0.14660
F250        F  0.42922978  0.07350774  0.34995934    -0.12290
C251        C  0.17203903  0.39456752  0.39047585     0.25720
C252        C  0.16463359  0.35823884  0.37018980    -0.22390
C253        C  0.13224023  0.34412284  0.37265966     0.20620
C254        C  0.10871328  0.36499452  0.39318970     0.25660
C255        C  0.11622867  0.40104118  0.41259498    -0.22340
C256        C  0.14839659  0.41496714  0.41178207     0.20560
F257        F  0.15702253  0.44955795  0.43023312    -0.12290
F258        F  0.20152773  0.41252192  0.38836283    -0.14660
F259        F  0.07829615  0.34933511  0.39396479    -0.14660
F260        F  0.12260444  0.30957501  0.35536785    -0.12290
C261        C  0.38574239  0.41547570  0.13103202     0.25720
C262        C  0.39506475  0.40421982  0.09270225    -0.22390
C263        C  0.37892022  0.37254641  0.07424123     0.20620
C264        C  0.35546510  0.35015792  0.09468391     0.25660
C265        C  0.34826559  0.35776053  0.13548703    -0.22340
C266        C  0.36161409  0.39366072  0.15151277     0.20560
F267        F  0.35192712  0.40777888  0.18721837    -0.12290
F268        F  0.39981842  0.44786546  0.14851399    -0.14660
F269        F  0.34085773  0.32022763  0.07405582    -0.14660
F270        F  0.38649820  0.36250047  0.03634973    -0.12290
O271        O  0.45242120  0.41627393  0.91911467    -0.73170
O272        O  0.41450046  0.45066776  0.95377618    -0.52080
C273        C  0.42315306  0.42513474  0.92743876     0.80560
O274        O  0.05899342  0.41741713  0.58079908    -0.57770
O275        O  0.09783460  0.45190614  0.54625178    -0.50800
C276        C  0.08866164  0.42608790  0.57278468     0.72570
O277        O  0.45033298  0.41693392  0.58128161    -0.72330
O278        O  0.41333619  0.44990985  0.54355055    -0.52890
C279        C  0.42126796  0.42536105  0.57135884     0.78570
O280        O  0.06100348  0.41576494  0.92329128    -0.57470
O281        O  0.09889982  0.45045284  0.95860872    -0.50590
C282        C  0.09045918  0.42397464  0.93280934     0.75170
Zr283      Zr  0.50646841  0.43577299  0.94104610     2.54710
O284        O  0.50490913  0.36290431  0.94275648    -0.78040
O285        O  0.00908970  0.43859947  0.86861062    -0.91460
Zr286      Zr  0.50498585  0.43461599  0.55902797     2.64680
O287        O  0.50346161  0.36193499  0.55376021    -0.96410
O288        O  0.00510326  0.43189665  0.63149691    -0.78470
O289        O  0.47413059  0.43388744  0.49959374    -0.81830
O290        O  0.03707808  0.43464903  0.00054021    -2.16540
O291        O  0.06163366  0.07353398  0.92138607    -0.65220
O292        O  0.09938894  0.03904387  0.95603093    -0.49790
C293        C  0.09097893  0.06531368  0.92995850     0.73550
O294        O  0.45312132  0.07329778  0.57691337    -0.58130
O295        O  0.41470647  0.03751002  0.54382901    -0.50110
C296        C  0.42363586  0.06421154  0.56918189     0.75350
O297        O  0.06043011  0.07350575  0.57849467    -0.69520
O298        O  0.09873915  0.04062431  0.54387863    -0.48200
C299        C  0.08989303  0.06655218  0.56972370     0.76740
O300        O  0.45292400  0.07409444  0.92338725    -0.64850
O301        O  0.41390626  0.03996222  0.95836187    -0.52050
C302        C  0.42329571  0.06594178  0.93220941     0.75120
Zr303      Zr  0.00719801  0.05411290  0.94139793     2.77540
O304        O  0.50792050  0.12700381  0.94303410    -0.95600
O305        O  0.50640811  0.05323289  0.86892274    -0.76420
Zr306      Zr  0.00667205  0.05272807  0.55890125     2.70060
O307        O  0.00782713  0.12559003  0.55947144    -0.77670
O308        O  0.50535264  0.04830247  0.63130254    -0.96750
Zr309      Zr  0.44402588  0.99402156  0.49953211     2.21500
Zr310      Zr  0.06878497  0.49506011  0.00079787     2.11130
O311        O  0.03833718  0.05488094  0.00034194    -2.45440
O312        O  0.47550883  0.05431398  0.49997503    -0.77460
O313        O  0.03839384  0.49532279  0.94057931    -0.69660
O314        O  0.47449224  0.99368317  0.55965514    -2.30620
O315        O  0.47543631  0.99468990  0.93990870    -2.26820
O316        O  0.03743382  0.49386434  0.56039221    -0.71420
H317        H  0.05062366  0.41146365  0.00086594     0.80580
H318        H  0.46066880  0.99378382  0.58281534     0.81670
H319        H  0.05222686  0.07838949  0.00040437     0.83890
H320        H  0.46186831  0.99502838  0.91657976     0.81500
H321        H  0.49553806  0.45747619  0.63974403     0.44530
H322        H  0.02428087  0.03215970  0.63840211     0.43500
H323        H  0.49914723  0.13340374  0.53315337     0.43180
H324        H  0.02768208  0.13440510  0.95791369     0.41120
H325        H  0.01960693  0.02998144  0.86172511     0.44250
H326        H  0.49057983  0.45504261  0.86056078     0.39030
H327        H  0.49019714  0.35596862  0.96510031     0.45150
H328        H  0.02408654  0.35511243  0.54088143     0.41560
H329        H  0.01253488  0.13533192  0.91521047     0.46480
H330        H  0.00318810  0.41113694  0.86002118     0.45210
H331        H  0.50564993  0.35226204  0.58155258     0.45340
H332        H  0.01100421  0.07569939  0.64032013     0.45700
C333        C  0.18757291  0.15578563  0.83441784    -0.00370
C334        C  0.18870930  0.33768927  0.84139430    -0.00370
C335        C  0.18518825  0.33974855  0.66827616    -0.00370
C336        C  0.18495727  0.15843706  0.66420925    -0.00370
C337        C  0.32943620  0.15384246  0.83392882    -0.00370
C338        C  0.32658199  0.15463664  0.65823960    -0.00370
C339        C  0.32378842  0.33081791  0.65937397    -0.00370
C340        C  0.32720485  0.32902426  0.83998395    -0.00370
C341        C  0.35965823  0.33598004  0.72728898     0.25720
C342        C  0.33073374  0.32611396  0.70617220    -0.22390
C343        C  0.30637971  0.30882167  0.73038298     0.20620
C344        C  0.30800177  0.30694250  0.77127605     0.25660
C345        C  0.33279710  0.32535632  0.79318222    -0.22340
C346        C  0.36043100  0.33665998  0.77008852     0.20560
F347        F  0.38868871  0.34600250  0.78821397    -0.12290
F348        F  0.38753874  0.34329450  0.70725297    -0.14660
F349        F  0.28266913  0.28926488  0.78948325    -0.14660
F350        F  0.27830746  0.29617337  0.71547835    -0.12290
C351        C  0.29959959  0.22196345  0.65916772     0.25720
C352        C  0.32591377  0.19994974  0.64549455    -0.22390
C353        C  0.35164843  0.22335486  0.62866903     0.20620
C354        C  0.35221752  0.26544817  0.63411580     0.25660
C355        C  0.32357578  0.28621037  0.64422164    -0.22340
C356        C  0.29604766  0.26133277  0.64909374     0.20560
F357        F  0.26566802  0.27434842  0.65085165    -0.12290
F358        F  0.27775083  0.20607644  0.68494006    -0.14660
F359        F  0.38111220  0.28486990  0.63130279    -0.14660
F360        F  0.37792578  0.20674302  0.61228502    -0.12290
C361        C  0.34134371  0.11761248  0.72514444     0.25720
C362        C  0.33718665  0.15365291  0.70360253    -0.22390
C363        C  0.34593811  0.18871637  0.72518147     0.20620
C364        C  0.34650854  0.18930914  0.76623789     0.25660
C365        C  0.34102452  0.15400763  0.78915384    -0.22340
C366        C  0.34086261  0.11745946  0.76715441     0.20560
F367        F  0.33746722  0.08168375  0.78632144    -0.12290
F368        F  0.34403617  0.08224476  0.70578325    -0.14660
F369        F  0.34939060  0.22640833  0.78129098    -0.14660
F370        F  0.35515383  0.22373492  0.70785925    -0.12290
C371        C  0.30039008  0.21889030  0.85721236     0.25720
C372        C  0.32908308  0.19784984  0.85050235    -0.22390
C373        C  0.35806013  0.22063047  0.85541738     0.20620
C374        C  0.35754549  0.26289504  0.85422622     0.25660
C375        C  0.32804629  0.28386887  0.85384348    -0.22340
C376        C  0.29996889  0.25996647  0.85974568     0.20560
F377        F  0.26999636  0.27444878  0.86050649    -0.12290
F378        F  0.27086692  0.20192646  0.85754807    -0.14660
F379        F  0.38601802  0.28293844  0.84938102    -0.14660
F380        F  0.38708127  0.20287953  0.85264236    -0.12290
C381        C  0.23884387  0.11913563  0.68315844     0.25720
C382        C  0.22106182  0.14458918  0.65766211    -0.22390
C383        C  0.23814644  0.15753988  0.62300771     0.20620
C384        C  0.27175118  0.15327407  0.61950297     0.25660
C385        C  0.29047885  0.13831881  0.65180127    -0.22340
C386        C  0.27240445  0.11662280  0.68071470     0.20560
F387        F  0.28580707  0.08914885  0.70474533    -0.12290
F388        F  0.22486812  0.09252103  0.70819603    -0.14660
F389        F  0.28651155  0.16907028  0.58666731    -0.14660
F390        F  0.22246650  0.17586550  0.59271811    -0.12290
C391        C  0.17147275  0.27118454  0.62829322     0.25720
C392        C  0.18648224  0.29279600  0.65996461    -0.22390
C393        C  0.20501926  0.26959279  0.68618967     0.20620
C394        C  0.20588690  0.22798819  0.68445050     0.25660
C395        C  0.18716352  0.20565479  0.65726207    -0.22340
C396        C  0.17169327  0.22848567  0.62706704     0.20560
F397        F  0.15763351  0.21022817  0.59546011    -0.12290
F398        F  0.15740748  0.29070569  0.59757503    -0.14660
F399        F  0.22285531  0.20885955  0.71279121    -0.14660
F400        F  0.22083945  0.28753044  0.71631511    -0.12290
C401        C  0.23623181  0.34430736  0.62312903     0.25720
C402        C  0.22134865  0.35406436  0.65997202    -0.22390
C403        C  0.24210949  0.37393398  0.68731434     0.20620
C404        C  0.27561117  0.37364689  0.68289062     0.25660
C405        C  0.29003692  0.35101067  0.65278339    -0.22340
C406        C  0.27012929  0.34369233  0.61918360     0.20560
F407        F  0.28233224  0.32833569  0.58530790    -0.12290
F408        F  0.21811299  0.33120470  0.59208689    -0.14660
F409        F  0.29380534  0.39308986  0.71032605    -0.14660
F410        F  0.23139345  0.39525695  0.71793446    -0.12290
C411        C  0.15934556  0.31370919  0.77631587     0.25720
C412        C  0.17457008  0.34488776  0.79767653    -0.22390
C413        C  0.17321030  0.38205522  0.77686130     0.20620
C414        C  0.17262943  0.38253248  0.73417785     0.25660
C415        C  0.17298754  0.34581488  0.71297078    -0.22340
C416        C  0.15851009  0.31417317  0.73500467     0.20560
F417        F  0.14265906  0.28382472  0.71714037    -0.12290
F418        F  0.14447365  0.28284161  0.79498160    -0.14660
F419        F  0.17406012  0.41804056  0.71426426    -0.14660
F420        F  0.17444802  0.41713014  0.79704238    -0.12290
C421        C  0.24174158  0.34432944  0.88311133     0.25720
C422        C  0.22483517  0.35349238  0.84739289    -0.22390
C423        C  0.24402482  0.37351152  0.81815135     0.20620
C424        C  0.27761759  0.37132961  0.81847579     0.25660
C425        C  0.29361565  0.34934208  0.84811987    -0.22340
C426        C  0.27595677  0.34468696  0.88418509     0.20560
F427        F  0.29053703  0.33128394  0.91765237    -0.12290
F428        F  0.22536777  0.33082110  0.91568811    -0.14660
F429        F  0.29426463  0.39034473  0.78898179    -0.14660
F430        F  0.23182133  0.39841677  0.79098798    -0.12290
C431        C  0.17055951  0.11315954  0.77090104     0.25720
C432        C  0.17112007  0.14997710  0.79234782    -0.22390
C433        C  0.15733233  0.18183636  0.77160269     0.20620
C434        C  0.15690968  0.18232571  0.73019936     0.25660
C435        C  0.17090872  0.15120444  0.70806193    -0.22340
C436        C  0.16880123  0.11393250  0.72846841     0.20560
F437        F  0.16744776  0.07903344  0.70796486    -0.12290
F438        F  0.17614004  0.07792516  0.78963947    -0.14660
F439        F  0.14176169  0.21270519  0.71215029    -0.14660
F440        F  0.14337086  0.21194265  0.79101812    -0.12290
C441        C  0.24102160  0.13108479  0.86906617     0.25720
C442        C  0.22296137  0.13881882  0.83396077    -0.22390
C443        C  0.24084878  0.13772976  0.79832388     0.20620
C444        C  0.27398314  0.14091964  0.79812941     0.25660
C445        C  0.29330994  0.13564785  0.83298433    -0.22340
C446        C  0.27484120  0.12462140  0.86758916     0.20560
F447        F  0.28870792  0.11097963  0.90117662    -0.12290
F448        F  0.22659431  0.13213133  0.90534046    -0.14660
F449        F  0.28509992  0.15635091  0.76330248    -0.14660
F450        F  0.22758113  0.14460473  0.76248116    -0.12290
C451        C  0.20943775  0.22801759  0.81716441     0.25720
C452        C  0.19216603  0.20275773  0.84421450    -0.22390
C453        C  0.17984073  0.22330517  0.87809159     0.20620
C454        C  0.17895252  0.26617523  0.87952558     0.25660
C455        C  0.19174721  0.29044639  0.84796641    -0.22340
C456        C  0.20933412  0.26967060  0.81926700     0.20560
F457        F  0.22446423  0.29047294  0.78994398    -0.12290
F458        F  0.22586588  0.21327767  0.78636289    -0.14660
F459        F  0.16640477  0.28330406  0.91243959    -0.14660
F460        F  0.16930687  0.20254132  0.91056946    -0.12290
C461        C  0.10991542  0.12633498  0.89249425     0.25720
C462        C  0.11646252  0.08827378  0.90805704    -0.22390
C463        C  0.14665535  0.07186183  0.90034728     0.20620
C464        C  0.16965688  0.09280459  0.87725131     0.25660
C465        C  0.16404877  0.13243567  0.86304331    -0.22340
C466        C  0.13279569  0.14748116  0.86993328     0.20560
F467        F  0.12363223  0.18302145  0.85456914    -0.12290
F468        F  0.08099815  0.14353634  0.89887388    -0.14660
F469        F  0.19596984  0.07208055  0.86638449    -0.14660
F470        F  0.15332048  0.03421799  0.91295030    -0.12290
C471        C  0.16905800  0.39780576  0.61926583     0.25720
C472        C  0.16090607  0.36237078  0.64123702    -0.22390
C473        C  0.12810459  0.34993562  0.64065952     0.20620
C474        C  0.10521197  0.37013498  0.61832088     0.25660
C475        C  0.11367225  0.40442829  0.59588230    -0.22340
C476        C  0.14595701  0.41787956  0.59659755     0.20560
F477        F  0.15527390  0.45150727  0.57638066    -0.12290
F478        F  0.19882474  0.41506689  0.62069064    -0.14660
F479        F  0.07453380  0.35531355  0.61860747    -0.14660
F480        F  0.11766112  0.31710245  0.66091171    -0.12290
C481        C  0.40762249  0.11247454  0.62232501     0.25720
C482        C  0.39866735  0.08622112  0.59150661    -0.22390
C483        C  0.36580138  0.08137204  0.58269088     0.20620
C484        C  0.34251587  0.10241919  0.60366590     0.25660
C485        C  0.35134865  0.13041480  0.63374211    -0.22340
C486        C  0.38465126  0.13403511  0.64281358     0.20560
F487        F  0.39568758  0.15945273  0.67130230    -0.12290
F488        F  0.43889369  0.11768827  0.63322978    -0.14660
F489        F  0.31154384  0.09436208  0.59362824    -0.14660
F490        F  0.35577375  0.05608150  0.55354228    -0.12290
C491        C  0.12858210  0.14610702  0.63499803     0.25720
C492        C  0.16148380  0.13582345  0.63560985    -0.22390
C493        C  0.17025436  0.10171554  0.61285638     0.20620
C494        C  0.14735518  0.08002781  0.59080533     0.25660
C495        C  0.11482334  0.09062259  0.59112331    -0.22340
C496        C  0.10594229  0.12434923  0.61315574     0.20560
F497        F  0.07500227  0.13681766  0.61395309    -0.12290
F498        F  0.11766117  0.17776431  0.65551628    -0.14660
F499        F  0.15714598  0.04750494  0.57031701    -0.14660
F500        F  0.20043858  0.08702309  0.61282049    -0.12290
C501        C  0.36291705  0.39311301  0.84861472     0.25720
C502        C  0.35238537  0.35501232  0.86313029    -0.22390
C503        C  0.36289955  0.34403563  0.90206717     0.20620
C504        C  0.38575111  0.36710693  0.92240580     0.25660
C505        C  0.39773491  0.40284721  0.90611702    -0.22340
C506        C  0.38595088  0.41611407  0.86937656     0.20560
F507        F  0.39690864  0.45128947  0.85345723    -0.12290
F508        F  0.35143511  0.40823706  0.81401088    -0.14660
F509        F  0.39649874  0.35417849  0.95829768    -0.14660
F510        F  0.35097459  0.31130908  0.92162180    -0.12290
C511        C  0.37321992  0.10715681  0.92623381     0.25720
C512        C  0.39879089  0.08694933  0.90861860    -0.22390
C513        C  0.40341449  0.09048160  0.86764791     0.20620
C514        C  0.38282854  0.11292575  0.84429337     0.25660
C515        C  0.35406486  0.12977577  0.86024408    -0.22340
C516        C  0.35199982  0.12955591  0.90263442     0.20560
F517        F  0.33201385  0.15474318  0.92183416    -0.12290
F518        F  0.37022988  0.10778961  0.96650729    -0.14660
F519        F  0.39446918  0.12157563  0.80744161    -0.14660
F520        F  0.42922975  0.07350769  0.84995922    -0.12290
C521        C  0.17203899  0.39456752  0.89047586     0.25720
C522        C  0.16463356  0.35823884  0.87018980    -0.22390
C523        C  0.13224021  0.34412282  0.87265967     0.20620
C524        C  0.10871325  0.36499447  0.89318973     0.25660
C525        C  0.11622863  0.40104114  0.91259502    -0.22340
C526        C  0.14839655  0.41496712  0.91178210     0.20560
F527        F  0.15702246  0.44955795  0.93023313    -0.12290
F528        F  0.20152768  0.41252196  0.88836281    -0.14660
F529        F  0.07829612  0.34933505  0.89396481    -0.14660
F530        F  0.12260443  0.30957499  0.85536783    -0.12290
C531        C  0.38574236  0.41547572  0.63103200     0.25720
C532        C  0.39506476  0.40421980  0.59270225    -0.22390
C533        C  0.37892027  0.37254636  0.57424125     0.20620
C534        C  0.35546513  0.35015788  0.59468391     0.25660
C535        C  0.34826560  0.35776052  0.63548702    -0.22340
C536        C  0.36161405  0.39366073  0.65151274     0.20560
F537        F  0.35192706  0.40777891  0.68721831    -0.12290
F538        F  0.39981835  0.44786551  0.64851395    -0.14660
F539        F  0.34085778  0.32022758  0.57405582    -0.14660
F540        F  0.38649829  0.36250038  0.53634977    -0.12290
O541        O  0.45242121  0.91627394  0.41911466    -0.73170
O542        O  0.41450047  0.95066775  0.45377619    -0.52080
C543        C  0.42315307  0.92513474  0.42743876     0.80560
O544        O  0.05899335  0.91741698  0.08079910    -0.57770
O545        O  0.09783452  0.95190596  0.04625178    -0.50800
C546        C  0.08866156  0.92608773  0.07278468     0.72570
O547        O  0.45033294  0.91693402  0.08128179    -0.72330
O548        O  0.41333615  0.94990991  0.04355072    -0.52890
C549        C  0.42126791  0.92536114  0.07135903     0.78570
O550        O  0.06100349  0.91576491  0.42329132    -0.57470
O551        O  0.09889982  0.95045280  0.45860878    -0.50590
C552        C  0.09045919  0.92397460  0.43280939     0.75170
Zr553      Zr  0.50646842  0.93577298  0.44104611     2.54710
O554        O  0.50490910  0.86290430  0.44275647    -0.78040
O555        O  0.00908965  0.93859959  0.36861066    -0.91460
Zr556      Zr  0.50498578  0.93461601  0.05902811     2.64680
O557        O  0.50346166  0.86193502  0.05376021    -0.96410
O558        O  0.00510285  0.93189744  0.13149715    -0.78470
O559        O  0.47413044  0.93388729  0.99959385    -0.81830
O560        O  0.03707876  0.93464789  0.50054026    -2.16540
O561        O  0.06163375  0.57353363  0.42138572    -0.65220
O562        O  0.09938903  0.53904364  0.45603071    -0.49790
C563        C  0.09097901  0.56531335  0.42995818     0.73550
O564        O  0.45312132  0.57329779  0.07691336    -0.58130
O565        O  0.41470646  0.53751003  0.04382901    -0.50110
C566        C  0.42363586  0.56421155  0.06918189     0.75350
O567        O  0.06043012  0.57350573  0.07849465    -0.69520
O568        O  0.09873916  0.54062427  0.04387862    -0.48200
C569        C  0.08989303  0.56655214  0.06972369     0.76740
O570        O  0.45292405  0.57409455  0.42338732    -0.64850
O571        O  0.41390630  0.53996228  0.45836190    -0.52050
C572        C  0.42329575  0.56594188  0.43220948     0.75120
Zr573      Zr  0.00719809  0.55411298  0.44139791     2.77540
O574        O  0.50792057  0.62700386  0.44303423    -0.95600
O575        O  0.50640837  0.55323388  0.36892269    -0.76420
Zr576      Zr  0.00667205  0.55272808  0.05890119     2.70060
O577        O  0.00782708  0.62559004  0.05947149    -0.77670
O578        O  0.50535262  0.54830246  0.13130253    -0.96750
Zr579      Zr  0.44402587  0.49402157  0.99953210     2.21500
Zr580      Zr  0.06878499  0.99506010  0.50079790     2.11130
O581        O  0.03833253  0.55487303  0.50034184    -2.45440
O582        O  0.47550882  0.55431400  0.99997502    -0.77460
O583        O  0.03839387  0.99532278  0.44057932    -0.69660
O584        O  0.47449203  0.49368318  0.05965547    -2.30620
O585        O  0.47543937  0.49468990  0.43991368    -2.26820
O586        O  0.03743393  0.99386436  0.06039254    -0.71420
H587        H  0.05062428  0.91146261  0.50086599     0.80580
H588        H  0.46066861  0.49378383  0.08281564     0.81670
H589        H  0.05222265  0.57838227  0.50040430     0.83890
H590        H  0.46187110  0.49502844  0.41658429     0.81500
H591        H  0.49553782  0.95747687  0.13974393     0.44530
H592        H  0.02428085  0.53215970  0.13840207     0.43500
H593        H  0.49914720  0.63340374  0.03315336     0.43180
H594        H  0.02768215  0.63440512  0.45791367     0.41120
H595        H  0.01960599  0.52998173  0.36172470     0.44250
H596        H  0.49057991  0.95504259  0.36056077     0.39030
H597        H  0.49019714  0.85596862  0.46510032     0.45150
H598        H  0.02408668  0.85511253  0.04088134     0.41560
H599        H  0.01253477  0.63533222  0.41521059     0.46480
H600        H  0.00318809  0.91113705  0.36002121     0.45210
H601        H  0.50565002  0.85226212  0.08155260     0.45340
H602        H  0.01100429  0.57569944  0.14032009     0.45700
C603        C  0.18757296  0.65578560  0.33441779    -0.00370
C604        C  0.18870929  0.83768923  0.34139432    -0.00370
C605        C  0.18518822  0.83974854  0.16827617    -0.00370
C606        C  0.18495728  0.65843705  0.16420923    -0.00370
C607        C  0.32943623  0.65384246  0.33392882    -0.00370
C608        C  0.32658201  0.65463666  0.15823960    -0.00370
C609        C  0.32378840  0.83081792  0.15937401    -0.00370
C610        C  0.32720486  0.82902426  0.33998397    -0.00370
C611        C  0.35965822  0.83598000  0.22728900     0.25720
C612        C  0.33073372  0.82611396  0.20617223    -0.22390
C613        C  0.30637968  0.80882169  0.23038301     0.20620
C614        C  0.30800176  0.80694250  0.27127608     0.25660
C615        C  0.33279710  0.82535630  0.29318224    -0.22340
C616        C  0.36043100  0.83665995  0.27008854     0.20560
F617        F  0.38868872  0.84600245  0.28821398    -0.12290
F618        F  0.38753873  0.84329443  0.20725298    -0.14660
F619        F  0.28266912  0.78926489  0.28948328    -0.14660
F620        F  0.27830742  0.79617343  0.21547839    -0.12290
C621        C  0.29959961  0.72196346  0.15916777     0.25720
C622        C  0.32591378  0.69994976  0.14549458    -0.22390
C623        C  0.35164842  0.72335488  0.12866903     0.20620
C624        C  0.35221751  0.76544820  0.13411578     0.25660
C625        C  0.32357577  0.78621039  0.14422166    -0.22340
C626        C  0.29604766  0.76133277  0.14909379     0.20560
F627        F  0.26566802  0.77434841  0.15085170    -0.12290
F628        F  0.27775086  0.70607644  0.18494012    -0.14660
F629        F  0.38111218  0.78486994  0.13130274    -0.14660
F630        F  0.37792577  0.70674305  0.11228499    -0.12290
C631        C  0.34134372  0.61761247  0.22514444     0.25720
C632        C  0.33718667  0.65365291  0.20360253    -0.22390
C633        C  0.34593816  0.68871636  0.22518147     0.20620
C634        C  0.34650861  0.68930913  0.26623789     0.25660
C635        C  0.34102457  0.65400762  0.28915385    -0.22340
C636        C  0.34086264  0.61745945  0.26715441     0.20560
F637        F  0.33746724  0.58168374  0.28632144    -0.12290
F638        F  0.34403617  0.58224476  0.20578325    -0.14660
F639        F  0.34939071  0.72640831  0.28129099    -0.14660
F640        F  0.35515389  0.72373491  0.20785924    -0.12290
C641        C  0.30039010  0.71889029  0.35721237     0.25720
C642        C  0.32908311  0.69784984  0.35050234    -0.22390
C643        C  0.35806016  0.72063048  0.35541739     0.20620
C644        C  0.35754551  0.76289504  0.35422624     0.25660
C645        C  0.32804630  0.78386886  0.35384350    -0.22340
C646        C  0.29996890  0.75996645  0.35974569     0.20560
F647        F  0.26999638  0.77444876  0.36050651    -0.12290
F648        F  0.27086695  0.70192644  0.35754811    -0.14660
F649        F  0.38601804  0.78293845  0.34938105    -0.14660
F650        F  0.38708130  0.70287954  0.35264237    -0.12290
C651        C  0.23884388  0.61913563  0.18315842     0.25720
C652        C  0.22106183  0.64458918  0.15766209    -0.22390
C653        C  0.23814646  0.65753990  0.12300770     0.20620
C654        C  0.27175120  0.65327410  0.11950298     0.25660
C655        C  0.29047886  0.63831883  0.15180128    -0.22340
C656        C  0.27240446  0.61662282  0.18071470     0.20560
F657        F  0.28580707  0.58914888  0.20474534    -0.12290
F658        F  0.22486813  0.59252101  0.20819599    -0.14660
F659        F  0.28651157  0.66907032  0.08666732    -0.14660
F660        F  0.22246652  0.67586552  0.09271810    -0.12290
C661        C  0.17147273  0.77118453  0.12829322     0.25720
C662        C  0.18648222  0.79279599  0.15996461    -0.22390
C663        C  0.20501925  0.76959278  0.18618966     0.20620
C664        C  0.20588689  0.72798818  0.18445049     0.25660
C665        C  0.18716352  0.70565478  0.15726206    -0.22340
C666        C  0.17169326  0.72848566  0.12706704     0.20560
F667        F  0.15763349  0.71022817  0.09546011    -0.12290
F668        F  0.15740745  0.79070568  0.09757504    -0.14660
F669        F  0.22285531  0.70885955  0.21279120    -0.14660
F670        F  0.22083943  0.78753043  0.21631511    -0.12290
C671        C  0.23623179  0.84430735  0.12312904     0.25720
C672        C  0.22134862  0.85406437  0.15997202    -0.22390
C673        C  0.24210945  0.87393401  0.18731432     0.20620
C674        C  0.27561114  0.87364690  0.18289062     0.25660
C675        C  0.29003689  0.85101067  0.15278341    -0.22340
C676        C  0.27012927  0.84369231  0.11918361     0.20560
F677        F  0.28233223  0.82833565  0.08530793    -0.12290
F678        F  0.21811298  0.83120467  0.09208690    -0.14660
F679        F  0.29380530  0.89308988  0.21032606    -0.14660
F680        F  0.23139341  0.89525701  0.21793443    -0.12290
C681        C  0.15934556  0.81370917  0.27631589     0.25720
C682        C  0.17457008  0.84488774  0.29767656    -0.22390
C683        C  0.17321029  0.88205520  0.27686133     0.20620
C684        C  0.17262942  0.88253246  0.23417787     0.25660
C685        C  0.17298752  0.84581487  0.21297079    -0.22340
C686        C  0.15851009  0.81417315  0.23500469     0.20560
F687        F  0.14265908  0.78382468  0.21714040    -0.12290
F688        F  0.14447366  0.78284158  0.29498162    -0.14660
F689        F  0.17406009  0.91804055  0.21426429    -0.14660
F690        F  0.17444802  0.91713011  0.29704241    -0.12290
C691        C  0.24174158  0.84432941  0.38311135     0.25720
C692        C  0.22483517  0.85349235  0.34739291    -0.22390
C693        C  0.24402482  0.87351149  0.31815137     0.20620
C694        C  0.27761760  0.87132960  0.31847581     0.25660
C695        C  0.29361565  0.84934207  0.34811989    -0.22340
C696        C  0.27595677  0.84468694  0.38418511     0.20560
F697        F  0.29053703  0.83128392  0.41765239    -0.12290
F698        F  0.22536777  0.83082107  0.41568813    -0.14660
F699        F  0.29426463  0.89034473  0.28898182    -0.14660
F700        F  0.23182133  0.89841670  0.29098795    -0.12290
C701        C  0.17055955  0.61315952  0.27090100     0.25720
C702        C  0.17112012  0.64997708  0.29234777    -0.22390
C703        C  0.15733235  0.68183634  0.27160267     0.20620
C704        C  0.15690969  0.68232569  0.23019934     0.25660
C705        C  0.17090873  0.65120444  0.20806190    -0.22340
C706        C  0.16880125  0.61393249  0.22846837     0.20560
F707        F  0.16744777  0.57903343  0.20796482    -0.12290
F708        F  0.17614009  0.57792513  0.28963940    -0.14660
F709        F  0.14176168  0.71270516  0.21215028    -0.14660
F710        F  0.14337085  0.71194260  0.29101813    -0.12290
C711        C  0.24102164  0.63108478  0.36906614     0.25720
C712        C  0.22296143  0.63881882  0.33396072    -0.22390
C713        C  0.24084883  0.63772977  0.29832384     0.20620
C714        C  0.27398319  0.64091968  0.29812939     0.25660
C715        C  0.29330998  0.63564786  0.33298431    -0.22340
C716        C  0.27484124  0.62462138  0.36758913     0.20560
F717        F  0.28870795  0.61097956  0.40117658    -0.12290
F718        F  0.22659434  0.63213129  0.40534042    -0.14660
F719        F  0.28509997  0.65635099  0.26330249    -0.14660
F720        F  0.22758119  0.64460472  0.26248112    -0.12290
C721        C  0.20943776  0.72801757  0.31716441     0.25720
C722        C  0.19216605  0.70275769  0.34421449    -0.22390
C723        C  0.17984072  0.72330512  0.37809157     0.20620
C724        C  0.17895252  0.76617517  0.37952558     0.25660
C725        C  0.19174721  0.79044636  0.34796642    -0.22340
C726        C  0.20933412  0.76967058  0.31926701     0.20560
F727        F  0.22446423  0.79047293  0.28994399    -0.12290
F728        F  0.22586589  0.71327766  0.28636288    -0.14660
F729        F  0.16640476  0.78330400  0.41243959    -0.14660
F730        F  0.16930683  0.70254124  0.41056942    -0.12290
C731        C  0.10991544  0.62633465  0.39249395     0.25720
C732        C  0.11646258  0.58827343  0.40805666    -0.22390
C733        C  0.14665543  0.57186154  0.40034693     0.20620
C734        C  0.16965698  0.59280442  0.37725110     0.25660
C735        C  0.16404884  0.63243555  0.36304321    -0.22340
C736        C  0.13279574  0.64748096  0.36993315     0.20560
F737        F  0.12363227  0.68302131  0.35456917    -0.12290
F738        F  0.08099815  0.64353593  0.39887359    -0.14660
F739        F  0.19597001  0.57208048  0.36638433    -0.14660
F740        F  0.15332060  0.53421770  0.41294991    -0.12290
C741        C  0.16905794  0.89780568  0.11926578     0.25720
C742        C  0.16090602  0.86237073  0.14123703    -0.22390
C743        C  0.12810455  0.84993553  0.14065955     0.20620
C744        C  0.10521193  0.87013483  0.11832085     0.25660
C745        C  0.11367219  0.90442810  0.09588223    -0.22340
C746        C  0.14595694  0.91787940  0.09659746     0.20560
F747        F  0.15527379  0.95150714  0.07638059    -0.12290
F748        F  0.19882465  0.91506689  0.12069063    -0.14660
F749        F  0.07453375  0.85531340  0.11860752    -0.14660
F750        F  0.11766109  0.81710242  0.16091184    -0.12290
C751        C  0.40762250  0.61247456  0.12232500     0.25720
C752        C  0.39866735  0.58622113  0.09150661    -0.22390
C753        C  0.36580138  0.58137204  0.08269089     0.20620
C754        C  0.34251587  0.60241920  0.10366591     0.25660
C755        C  0.35134865  0.63041482  0.13374211    -0.22340
C756        C  0.38465127  0.63403514  0.14281356     0.20560
F757        F  0.39568759  0.65945277  0.17130227    -0.12290
F758        F  0.43889370  0.61768830  0.13322976    -0.14660
F759        F  0.31154384  0.59436209  0.09362825    -0.14660
F760        F  0.35577375  0.55608150  0.05354230    -0.12290
C761        C  0.12858211  0.64610699  0.13499802     0.25720
C762        C  0.16148381  0.63582344  0.13560983    -0.22390
C763        C  0.17025437  0.60171552  0.11285636     0.20620
C764        C  0.14735519  0.58002778  0.09080533     0.25660
C765        C  0.11482335  0.59062254  0.09112332    -0.22340
C766        C  0.10594229  0.62434918  0.11315576     0.20560
F767        F  0.07500227  0.63681760  0.11395311    -0.12290
F768        F  0.11766117  0.67776428  0.15551627    -0.14660
F769        F  0.15714599  0.54750491  0.07031700    -0.14660
F770        F  0.20043861  0.58702311  0.11282044    -0.12290
C771        C  0.36291707  0.89311300  0.34861472     0.25720
C772        C  0.35238538  0.85501232  0.36313030    -0.22390
C773        C  0.36289955  0.84403563  0.40206719     0.20620
C774        C  0.38575111  0.86710694  0.42240582     0.25660
C775        C  0.39773492  0.90284721  0.40611702    -0.22340
C776        C  0.38595090  0.91611406  0.36937655     0.20560
F777        F  0.39690868  0.95128945  0.35345722    -0.12290
F778        F  0.35143514  0.90823704  0.31401087    -0.14660
F779        F  0.39649873  0.85417850  0.45829770    -0.14660
F780        F  0.35097458  0.81130909  0.42162182    -0.12290
C781        C  0.37321995  0.60715692  0.42623388     0.25720
C782        C  0.39879093  0.58694945  0.40861869    -0.22390
C783        C  0.40341453  0.59048168  0.36764800     0.20620
C784        C  0.38282857  0.61292576  0.34429343     0.25660
C785        C  0.35406488  0.62977579  0.36024411    -0.22340
C786        C  0.35199982  0.62955596  0.40263446     0.20560
F787        F  0.33201381  0.65474320  0.42183416    -0.12290
F788        F  0.37022986  0.60778971  0.46650736    -0.14660
F789        F  0.39446919  0.62157552  0.30744163    -0.14660
F790        F  0.42922980  0.57350775  0.34995934    -0.12290
C791        C  0.17203899  0.89456748  0.39047590     0.25720
C792        C  0.16463356  0.85823880  0.37018983    -0.22390
C793        C  0.13224021  0.84412278  0.37265970     0.20620
C794        C  0.10871326  0.86499443  0.39318978     0.25660
C795        C  0.11622863  0.90104109  0.41259508    -0.22340
C796        C  0.14839655  0.91496707  0.41178215     0.20560
F797        F  0.15702246  0.94955791  0.43023316    -0.12290
F798        F  0.20152767  0.91252193  0.38836283    -0.14660
F799        F  0.07829613  0.84933501  0.39396485    -0.14660
F800        F  0.12260443  0.80957496  0.35536785    -0.12290
C801        C  0.38574231  0.91547579  0.13103219     0.25720
C802        C  0.39506472  0.90421992  0.09270243    -0.22390
C803        C  0.37892023  0.87254651  0.07424137     0.20620
C804        C  0.35546511  0.85015799  0.09468400     0.25660
C805        C  0.34826556  0.85776057  0.13548711    -0.22340
C806        C  0.36161400  0.89366077  0.15151289     0.20560
F807        F  0.35192699  0.90777889  0.18721848    -0.12290
F808        F  0.39981828  0.94786556  0.14851420    -0.14660
F809        F  0.34085778  0.82022770  0.07405587    -0.14660
F810        F  0.38649825  0.86250061  0.03634987    -0.12290
O811        O  0.45242119  0.91627392  0.91911474    -0.73170
O812        O  0.41450045  0.95066782  0.95377617    -0.52080
C813        C  0.42315305  0.92513479  0.92743876     0.80560
O814        O  0.05899339  0.91741712  0.58079917    -0.57770
O815        O  0.09783457  0.95190605  0.54625180    -0.50800
C816        C  0.08866161  0.92608785  0.57278473     0.72570
O817        O  0.45033297  0.91693393  0.58128160    -0.72330
O818        O  0.41333618  0.94990985  0.54355054    -0.52890
C819        C  0.42126794  0.92536105  0.57135883     0.78570
O820        O  0.06100345  0.91576476  0.92329149    -0.57470
O821        O  0.09889978  0.95045270  0.95860888    -0.50590
C822        C  0.09045915  0.92397447  0.93280952     0.75170
Zr823      Zr  0.50646838  0.93577292  0.94104622     2.54710
O824        O  0.50490947  0.86290425  0.94275698    -0.78040
O825        O  0.00908946  0.93859975  0.86861075    -0.91460
Zr826      Zr  0.50498584  0.93461600  0.55902796     2.64680
O827        O  0.50346156  0.86193500  0.55376023    -0.96410
O828        O  0.00510296  0.93189695  0.63149703    -0.78470
O829        O  0.47413058  0.93388745  0.49959373    -0.81830
O830        O  0.03708081  0.93464435  0.00054041    -2.16540
O831        O  0.06163371  0.57353369  0.92138576    -0.65220
O832        O  0.09938899  0.53904373  0.95603077    -0.49790
C833        C  0.09097898  0.56531344  0.92995824     0.73550
O834        O  0.45312133  0.57329778  0.57691339    -0.58130
O835        O  0.41470648  0.53751002  0.54382902    -0.50110
C836        C  0.42363587  0.56421153  0.56918191     0.75350
O837        O  0.06043015  0.57350569  0.57849463    -0.69520
O838        O  0.09873920  0.54062418  0.54387866    -0.48200
C839        C  0.08989307  0.56655207  0.56972370     0.76740
O840        O  0.45292404  0.57409455  0.92338729    -0.64850
O841        O  0.41390629  0.53996229  0.95836188    -0.52050
C842        C  0.42329574  0.56594188  0.93220946     0.75120
Zr843      Zr  0.00719806  0.55411297  0.94139792     2.77540
O844        O  0.50792054  0.62700386  0.94303420    -0.95600
O845        O  0.50640836  0.55323387  0.86892267    -0.76420
Zr846      Zr  0.00667208  0.55272808  0.55890114     2.70060
O847        O  0.00782693  0.62559003  0.55947166    -0.77670
O848        O  0.50535264  0.54830244  0.63130255    -0.96750
Zr849      Zr  0.44402589  0.49402156  0.49953212     2.21500
Zr850      Zr  0.06878499  0.99506010  0.00079794     2.11130
O851        O  0.03833423  0.55487594  0.00034187    -2.45440
O852        O  0.47550883  0.55431399  0.49997504    -0.77460
O853        O  0.03839392  0.99532273  0.94057925    -0.69660
O854        O  0.47449205  0.49368317  0.55965548    -2.30620
O855        O  0.47543934  0.49468990  0.93991365    -2.26820
O856        O  0.03743388  0.99386433  0.56039239    -0.71420
H857        H  0.05062615  0.91145940  0.00086614     0.80580
H858        H  0.46066863  0.49378381  0.58281564     0.81670
H859        H  0.05222420  0.57838493  0.00040433     0.83890
H860        H  0.46187107  0.49502844  0.91658426     0.81500
H861        H  0.49553809  0.95747616  0.63974404     0.44530
H862        H  0.02428090  0.53215967  0.63840204     0.43500
H863        H  0.49914723  0.63340373  0.53315337     0.43180
H864        H  0.02768231  0.63440504  0.95791380     0.41120
H865        H  0.01960615  0.52998167  0.86172480     0.44250
H866        H  0.49057937  0.95504289  0.86056108     0.39030
H867        H  0.49019703  0.85596859  0.96510036     0.45150
H868        H  0.02408684  0.85511257  0.54088127     0.41560
H869        H  0.01253491  0.63533217  0.91521071     0.46480
H870        H  0.00318792  0.91113721  0.86002131     0.45210
H871        H  0.50564988  0.85226205  0.58155261     0.45340
H872        H  0.01100452  0.57569951  0.64032007     0.45700
C873        C  0.18757294  0.65578563  0.83441781    -0.00370
C874        C  0.18870928  0.83768926  0.84139433    -0.00370
C875        C  0.18518824  0.83974853  0.66827617    -0.00370
C876        C  0.18495728  0.65843704  0.66420925    -0.00370
C877        C  0.32943621  0.65384248  0.83392882    -0.00370
C878        C  0.32658200  0.65463664  0.65823960    -0.00370
C879        C  0.32378843  0.83081791  0.65937398    -0.00370
C880        C  0.32720485  0.82902428  0.83998396    -0.00370
C881        C  0.35965823  0.83598007  0.72728899     0.25720
C882        C  0.33073375  0.82611395  0.70617221    -0.22390
C883        C  0.30637973  0.80882164  0.73038299     0.20620
C884        C  0.30800179  0.80694248  0.77127607     0.25660
C885        C  0.33279710  0.82535632  0.79318224    -0.22340
C886        C  0.36043100  0.83666001  0.77008853     0.20560
F887        F  0.38868870  0.84600256  0.78821399    -0.12290
F888        F  0.38753873  0.84329457  0.70725299    -0.14660
F889        F  0.28266915  0.78926484  0.78948326    -0.14660
F890        F  0.27830749  0.79617330  0.71547836    -0.12290
C891        C  0.29959959  0.72196345  0.65916769     0.25720
C892        C  0.32591377  0.69994974  0.64549454    -0.22390
C893        C  0.35164844  0.72335486  0.62866904     0.20620
C894        C  0.35221753  0.76544817  0.63411581     0.25660
C895        C  0.32357579  0.78621037  0.64422165    -0.22340
C896        C  0.29604766  0.76133276  0.64909372     0.20560
F897        F  0.26566802  0.77434842  0.65085163    -0.12290
F898        F  0.27775082  0.70607644  0.68494003    -0.14660
F899        F  0.38111221  0.78486989  0.63130282    -0.14660
F900        F  0.37792579  0.70674302  0.61228504    -0.12290
C901        C  0.34134372  0.61761248  0.72514444     0.25720
C902        C  0.33718665  0.65365291  0.70360253    -0.22390
C903        C  0.34593811  0.68871638  0.72518147     0.20620
C904        C  0.34650854  0.68930915  0.76623789     0.25660
C905        C  0.34102455  0.65400763  0.78915385    -0.22340
C906        C  0.34086264  0.61745947  0.76715442     0.20560
F907        F  0.33746726  0.58168376  0.78632144    -0.12290
F908        F  0.34403618  0.58224477  0.70578326    -0.14660
F909        F  0.34939058  0.72640835  0.78129098    -0.14660
F910        F  0.35515380  0.72373494  0.70785925    -0.12290
C911        C  0.30039009  0.71889031  0.85721238     0.25720
C912        C  0.32908310  0.69784986  0.85050234    -0.22390
C913        C  0.35806015  0.72063050  0.85541737     0.20620
C914        C  0.35754550  0.76289506  0.85422623     0.25660
C915        C  0.32804630  0.78386889  0.85384351    -0.22340
C916        C  0.29996890  0.75996648  0.85974571     0.20560
F917        F  0.26999638  0.77444878  0.86050654    -0.12290
F918        F  0.27086694  0.70192646  0.85754808    -0.14660
F919        F  0.38601803  0.78293846  0.84938103    -0.14660
F920        F  0.38708129  0.70287956  0.85264233    -0.12290
C921        C  0.23884389  0.61913562  0.68315845     0.25720
C922        C  0.22106183  0.64458917  0.65766212    -0.22390
C923        C  0.23814645  0.65753987  0.62300771     0.20620
C924        C  0.27175119  0.65327406  0.61950297     0.25660
C925        C  0.29047885  0.63831880  0.65180127    -0.22340
C926        C  0.27240446  0.61662280  0.68071471     0.20560
F927        F  0.28580708  0.58914886  0.70474534    -0.12290
F928        F  0.22486813  0.59252102  0.70819603    -0.14660
F929        F  0.28651155  0.66907026  0.58666730    -0.14660
F930        F  0.22246650  0.67586548  0.59271811    -0.12290
C931        C  0.17147275  0.77118453  0.62829322     0.25720
C932        C  0.18648224  0.79279598  0.65996461    -0.22390
C933        C  0.20501927  0.76959277  0.68618967     0.20620
C934        C  0.20588690  0.72798818  0.68445050     0.25660
C935        C  0.18716353  0.70565477  0.65726207    -0.22340
C936        C  0.17169327  0.72848565  0.62706705     0.20560
F937        F  0.15763351  0.71022815  0.59546012    -0.12290
F938        F  0.15740748  0.79070568  0.59757503    -0.14660
F939        F  0.22285531  0.70885954  0.71279122    -0.14660
F940        F  0.22083946  0.78753043  0.71631510    -0.12290
C941        C  0.23623181  0.84430737  0.62312904     0.25720
C942        C  0.22134864  0.85406436  0.65997203    -0.22390
C943        C  0.24210948  0.87393396  0.68731436     0.20620
C944        C  0.27561117  0.87364686  0.68289065     0.25660
C945        C  0.29003691  0.85101066  0.65278341    -0.22340
C946        C  0.27012929  0.84369234  0.61918361     0.20560
F947        F  0.28233225  0.82833572  0.58530790    -0.12290
F948        F  0.21811299  0.83120472  0.59208689    -0.14660
F949        F  0.29380533  0.89308982  0.71032609    -0.14660
F950        F  0.23139344  0.89525692  0.71793449    -0.12290
C951        C  0.15934556  0.81370917  0.77631588     0.25720
C952        C  0.17457007  0.84488775  0.79767655    -0.22390
C953        C  0.17321029  0.88205521  0.77686132     0.20620
C954        C  0.17262943  0.88253247  0.73417786     0.25660
C955        C  0.17298753  0.84581487  0.71297079    -0.22340
C956        C  0.15851010  0.81417316  0.73500468     0.20560
F957        F  0.14265908  0.78382469  0.71714039    -0.12290
F958        F  0.14447367  0.78284158  0.79498161    -0.14660
F959        F  0.17406012  0.91804054  0.71426427    -0.14660
F960        F  0.17444801  0.91713013  0.79704239    -0.12290
C961        C  0.24174157  0.84432946  0.88311136     0.25720
C962        C  0.22483516  0.85349239  0.84739292    -0.22390
C963        C  0.24402481  0.87351152  0.81815137     0.20620
C964        C  0.27761758  0.87132959  0.81847579     0.25660
C965        C  0.29361564  0.84934208  0.84811988    -0.22340
C966        C  0.27595676  0.84468697  0.88418511     0.20560
F967        F  0.29053704  0.83128396  0.91765238    -0.12290
F968        F  0.22536776  0.83082112  0.91568814    -0.14660
F969        F  0.29426461  0.89034471  0.78898179    -0.14660
F970        F  0.23182132  0.89841678  0.79098800    -0.12290
C971        C  0.17055953  0.61315954  0.77090103     0.25720
C972        C  0.17112010  0.64997710  0.79234780    -0.22390
C973        C  0.15733234  0.68183635  0.77160268     0.20620
C974        C  0.15690968  0.68232570  0.73019935     0.25660
C975        C  0.17090873  0.65120443  0.70806192    -0.22340
C976        C  0.16880124  0.61393249  0.72846840     0.20560
F977        F  0.16744777  0.57903343  0.70796485    -0.12290
F978        F  0.17614007  0.57792515  0.78963944    -0.14660
F979        F  0.14176167  0.71270516  0.71215027    -0.14660
F980        F  0.14337084  0.71194262  0.79101812    -0.12290
C981        C  0.24102162  0.63108481  0.86906616     0.25720
C982        C  0.22296140  0.63881884  0.83396075    -0.22390
C983        C  0.24084881  0.63772977  0.79832387     0.20620
C984        C  0.27398317  0.64091965  0.79812940     0.25660
C985        C  0.29330996  0.63564787  0.83298432    -0.22340
C986        C  0.27484122  0.62462141  0.86758915     0.20560
F987        F  0.28870793  0.61097960  0.90117661    -0.12290
F988        F  0.22659432  0.63213134  0.90534045    -0.14660
F989        F  0.28509994  0.65635090  0.76330247    -0.14660
F990        F  0.22758116  0.64460474  0.76248114    -0.12290
C991        C  0.20943775  0.72801759  0.81716441     0.25720
C992        C  0.19216604  0.70275772  0.84421449    -0.22390
C993        C  0.17984072  0.72330515  0.87809158     0.20620
C994        C  0.17895252  0.76617521  0.87952559     0.25660
C995        C  0.19174721  0.79044639  0.84796642    -0.22340
C996        C  0.20933413  0.76967061  0.81926702     0.20560
F997        F  0.22446424  0.79047295  0.78994400    -0.12290
F998        F  0.22586589  0.71327768  0.78636289    -0.14660
F999        F  0.16640476  0.78330403  0.91243960    -0.14660
F1000       F  0.16930683  0.70254128  0.91056943    -0.12290
C1001       C  0.10991543  0.62633475  0.89249404     0.25720
C1002       C  0.11646255  0.58827353  0.90805676    -0.22390
C1003       C  0.14665540  0.57186164  0.90034703     0.20620
C1004       C  0.16965695  0.59280449  0.87725117     0.25660
C1005       C  0.16404881  0.63243560  0.86304325    -0.22340
C1006       C  0.13279572  0.64748104  0.86993319     0.20560
F1007       F  0.12363225  0.68302137  0.85456917    -0.12290
F1008       F  0.08099814  0.64353605  0.89887366    -0.14660
F1009       F  0.19596996  0.57208053  0.86638439    -0.14660
F1010       F  0.15332057  0.53421780  0.91295002    -0.12290
C1011       C  0.16905798  0.89780573  0.61926584     0.25720
C1012       C  0.16090606  0.86237075  0.64123703    -0.22390
C1013       C  0.12810458  0.84993557  0.64065953     0.20620
C1014       C  0.10521196  0.87013491  0.61832088     0.25660
C1015       C  0.11367223  0.90442822  0.59588231    -0.22340
C1016       C  0.14595698  0.91787951  0.59659756     0.20560
F1017       F  0.15527385  0.95150725  0.57638070    -0.12290
F1018       F  0.19882471  0.91506690  0.62069068    -0.14660
F1019       F  0.07453379  0.85531348  0.61860750    -0.14660
F1020       F  0.11766112  0.81710241  0.66091175    -0.12290
C1021       C  0.40762250  0.61247454  0.62232503     0.25720
C1022       C  0.39866736  0.58622111  0.59150663    -0.22390
C1023       C  0.36580139  0.58137203  0.58269089     0.20620
C1024       C  0.34251588  0.60241919  0.60366590     0.25660
C1025       C  0.35134865  0.63041480  0.63374211    -0.22340
C1026       C  0.38465127  0.63403511  0.64281359     0.20560
F1027       F  0.39568758  0.65945273  0.67130231    -0.12290
F1028       F  0.43889369  0.61768827  0.63322980    -0.14660
F1029       F  0.31154385  0.59436207  0.59362823    -0.14660
F1030       F  0.35577376  0.55608149  0.55354230    -0.12290
C1031       C  0.12858212  0.64610694  0.63499804     0.25720
C1032       C  0.16148382  0.63582340  0.63560986    -0.22390
C1033       C  0.17025439  0.60171546  0.61285643     0.20620
C1034       C  0.14735522  0.58002768  0.59080542     0.25660
C1035       C  0.11482337  0.59062245  0.59112338    -0.22340
C1036       C  0.10594231  0.62434909  0.61315580     0.20560
F1037       F  0.07500228  0.63681751  0.61395314    -0.12290
F1038       F  0.11766118  0.67776427  0.65551623    -0.14660
F1039       F  0.15714603  0.54750481  0.57031711    -0.14660
F1040       F  0.20043863  0.58702308  0.61282049    -0.12290
C1041       C  0.36291701  0.89311307  0.84861470     0.25720
C1042       C  0.35238536  0.85501237  0.86313028    -0.22390
C1043       C  0.36289957  0.84403569  0.90206715     0.20620
C1044       C  0.38575112  0.86710701  0.92240577     0.25660
C1045       C  0.39773490  0.90284729  0.90611699    -0.22340
C1046       C  0.38595084  0.91611416  0.86937653     0.20560
F1047       F  0.39690857  0.95128957  0.85345719    -0.12290
F1048       F  0.35143505  0.90823710  0.81401087    -0.14660
F1049       F  0.39649876  0.85417860  0.95829766    -0.14660
F1050       F  0.35097464  0.81130913  0.92162180    -0.12290
C1051       C  0.37321994  0.60715692  0.92623387     0.25720
C1052       C  0.39879092  0.58694945  0.90861867    -0.22390
C1053       C  0.40341452  0.59048170  0.86764798     0.20620
C1054       C  0.38282856  0.61292579  0.84429342     0.25660
C1055       C  0.35406487  0.62977580  0.86024411    -0.22340
C1056       C  0.35199982  0.62955598  0.90263446     0.20560
F1057       F  0.33201381  0.65474322  0.92183416    -0.12290
F1058       F  0.37022986  0.60778971  0.96650735    -0.14660
F1059       F  0.39446918  0.62157557  0.80744163    -0.14660
F1060       F  0.42922979  0.57350777  0.84995932    -0.12290
C1061       C  0.17203894  0.89456747  0.89047592     0.25720
C1062       C  0.16463354  0.85823880  0.87018984    -0.22390
C1063       C  0.13224019  0.84412275  0.87265973     0.20620
C1064       C  0.10871323  0.86499433  0.89318986     0.25660
C1065       C  0.11622860  0.90104098  0.91259520    -0.22340
C1066       C  0.14839650  0.91496701  0.91178223     0.20560
F1067       F  0.15702239  0.94955787  0.93023322    -0.12290
F1068       F  0.20152760  0.91252198  0.88836278    -0.14660
F1069       F  0.07829611  0.84933489  0.89396492    -0.14660
F1070       F  0.12260442  0.80957496  0.85536781    -0.12290
C1071       C  0.38574234  0.91547573  0.63103198     0.25720
C1072       C  0.39506475  0.90421980  0.59270224    -0.22390
C1073       C  0.37892027  0.87254634  0.57424124     0.20620
C1074       C  0.35546514  0.85015786  0.59468391     0.25660
C1075       C  0.34826559  0.85776051  0.63548702    -0.22340
C1076       C  0.36161404  0.89366074  0.65151273     0.20560
F1077       F  0.35192703  0.90777893  0.68721829    -0.12290
F1078       F  0.39981832  0.94786554  0.64851391    -0.14660
F1079       F  0.34085778  0.82022756  0.57405583    -0.14660
F1080       F  0.38649829  0.86250035  0.53634977    -0.12290
O1081       O  0.95242122  0.41627399  0.41911459    -0.73170
O1082       O  0.91450048  0.45066774  0.45377619    -0.52080
C1083       C  0.92315308  0.42513476  0.42743873     0.80560
O1084       O  0.55899341  0.41741718  0.08079912    -0.57770
O1085       O  0.59783458  0.45190612  0.04625177    -0.50800
C1086       C  0.58866162  0.42608791  0.07278470     0.72570
O1087       O  0.95033296  0.41693394  0.08128162    -0.72330
O1088       O  0.91333617  0.44990987  0.04355057    -0.52890
C1089       C  0.92126793  0.42536107  0.07135886     0.78570
O1090       O  0.56100352  0.41576497  0.42329127    -0.57470
O1091       O  0.59889986  0.45045287  0.45860872    -0.50590
C1092       C  0.59045922  0.42397466  0.43280934     0.75170
Zr1093     Zr  0.00646843  0.43577300  0.44104608     2.54710
O1094       O  0.00490899  0.36290431  0.44275639    -0.78040
O1095       O  0.50908986  0.43859937  0.36861061    -0.91460
Zr1096     Zr  0.00498582  0.43461601  0.05902799     2.64680
O1097       O  0.00346167  0.36193501  0.05376017    -0.96410
O1098       O  0.50510313  0.43189676  0.13149695    -0.78470
O1099       O  0.97413053  0.43388741  0.99959375    -0.81830
O1100       O  0.53707742  0.43465019  0.50054018    -2.16540
O1101       O  0.56163374  0.07353363  0.42138573    -0.65220
O1102       O  0.59938902  0.03904368  0.45603074    -0.49790
C1103       C  0.59097900  0.06531338  0.42995821     0.73550
O1104       O  0.95312129  0.07329768  0.07691362    -0.58130
O1105       O  0.91470644  0.03750995  0.04382924    -0.50110
C1106       C  0.92363584  0.06421145  0.06918214     0.75350
O1107       O  0.56043008  0.07350589  0.07849458    -0.69520
O1108       O  0.59873912  0.04062442  0.04387855    -0.48200
C1109       C  0.58989299  0.06655232  0.06972360     0.76740
O1110       O  0.95292404  0.07409454  0.42338732    -0.64850
O1111       O  0.91390629  0.03996226  0.45836190    -0.52050
C1112       C  0.92329574  0.06594186  0.43220948     0.75120
Zr1113     Zr  0.50719808  0.05411298  0.44139793     2.77540
O1114       O  0.00792062  0.12700384  0.44303428    -0.95600
O1115       O  0.00640822  0.05323352  0.36892273    -0.76420
Zr1116     Zr  0.50667201  0.05272808  0.05890129     2.70060
O1117       O  0.50782723  0.12559005  0.05947123    -0.77670
O1118       O  0.00535251  0.04830223  0.13130259    -0.96750
Zr1119     Zr  0.94402578  0.99402155  0.99953224     2.21500
Zr1120     Zr  0.56878499  0.49506011  0.50079787     2.11130
O1121       O  0.53833325  0.05487426  0.50034187    -2.45440
O1122       O  0.97550867  0.05431412  0.99997510    -0.77460
O1123       O  0.53839384  0.49532280  0.44057935    -0.69660
O1124       O  0.97448909  0.99368321  0.05966038    -2.30620
O1125       O  0.97543801  0.99468991  0.43991146    -2.26820
O1126       O  0.53743384  0.49386435  0.06039226    -0.71420
H1127       H  0.55062307  0.41146471  0.50086592     0.80580
H1128       H  0.96066592  0.99378384  0.08282011     0.81670
H1129       H  0.55222331  0.07838339  0.50040433     0.83890
H1130       H  0.96186986  0.99502842  0.41658227     0.81500
H1131       H  0.99553795  0.45747632  0.13974400     0.44530
H1132       H  0.52428095  0.03215982  0.13840210     0.43500
H1133       H  0.99914709  0.13340362  0.03315308     0.43180
H1134       H  0.52768225  0.13440507  0.45791375     0.41120
H1135       H  0.51960604  0.02998171  0.36172475     0.44250
H1136       H  0.99058011  0.45504253  0.36056067     0.39030
H1137       H  0.99019710  0.35596864  0.46510032     0.45150
H1138       H  0.52408671  0.35511252  0.04088133     0.41560
H1139       H  0.51253484  0.13533220  0.41521067     0.46480
H1140       H  0.50318821  0.41113685  0.36002118     0.45210
H1141       H  0.00565000  0.35226207  0.08155254     0.45340
H1142       H  0.51100396  0.07569934  0.14032012     0.45700
C1143       C  0.68757294  0.15578561  0.33441779    -0.00370
C1144       C  0.68870930  0.33768925  0.34139430    -0.00370
C1145       C  0.68518823  0.33974856  0.16827616    -0.00370
C1146       C  0.68495725  0.15843708  0.16420922    -0.00370
C1147       C  0.82943622  0.15384247  0.33392884    -0.00370
C1148       C  0.82658197  0.15463667  0.15823965    -0.00370
C1149       C  0.82378841  0.33081794  0.15937398    -0.00370
C1150       C  0.82720486  0.32902427  0.33998395    -0.00370
C1151       C  0.85965823  0.33597999  0.22728898     0.25720
C1152       C  0.83073372  0.32611399  0.20617221    -0.22390
C1153       C  0.80637967  0.30882176  0.23038299     0.20620
C1154       C  0.80800174  0.30694256  0.27127606     0.25660
C1155       C  0.83279710  0.32535632  0.29318223    -0.22340
C1156       C  0.86043101  0.33665993  0.27008852     0.20560
F1157       F  0.88868874  0.34600237  0.28821397    -0.12290
F1158       F  0.88753874  0.34329437  0.20725295    -0.14660
F1159       F  0.78266909  0.28926497  0.28948325    -0.14660
F1160       F  0.77830739  0.29617355  0.21547838    -0.12290
C1161       C  0.79959959  0.22196348  0.15916783     0.25720
C1162       C  0.82591375  0.19994977  0.14549461    -0.22390
C1163       C  0.85164839  0.22335487  0.12866903     0.20620
C1164       C  0.85221749  0.26544819  0.13411578     0.25660
C1165       C  0.82357576  0.28621039  0.14422166    -0.22340
C1166       C  0.79604765  0.26133279  0.14909383     0.20560
F1167       F  0.76566801  0.27434843  0.15085173    -0.12290
F1168       F  0.77775084  0.20607646  0.18494018    -0.14660
F1169       F  0.88111217  0.28486992  0.13130270    -0.14660
F1170       F  0.87792571  0.20674302  0.11228496    -0.12290
C1171       C  0.84134368  0.11761248  0.22514447     0.25720
C1172       C  0.83718662  0.15365292  0.20360257    -0.22390
C1173       C  0.84593814  0.18871637  0.22518150     0.20620
C1174       C  0.84650861  0.18930913  0.26623792     0.25660
C1175       C  0.84102456  0.15400762  0.28915387    -0.22340
C1176       C  0.84086262  0.11745945  0.26715444     0.20560
F1177       F  0.83746722  0.08168375  0.28632146    -0.12290
F1178       F  0.84403613  0.08224477  0.20578327    -0.14660
F1179       F  0.84939078  0.22640831  0.28129101    -0.14660
F1180       F  0.85515390  0.22373490  0.20785926    -0.12290
C1181       C  0.80039008  0.21889032  0.35721231     0.25720
C1182       C  0.82908309  0.19784985  0.35050235    -0.22390
C1183       C  0.85806014  0.22063049  0.35541743     0.20620
C1184       C  0.85754549  0.26289505  0.35422626     0.25660
C1185       C  0.82804629  0.28386888  0.35384349    -0.22340
C1186       C  0.79996889  0.25996648  0.35974565     0.20560
F1187       F  0.76999636  0.27444879  0.36050645    -0.12290
F1188       F  0.77086692  0.20192648  0.35754796    -0.14660
F1189       F  0.88601803  0.28293845  0.34938110    -0.14660
F1190       F  0.88708128  0.20287955  0.35264245    -0.12290
C1191       C  0.73884384  0.11913563  0.18315841     0.25720
C1192       C  0.72106179  0.14458919  0.15766209    -0.22390
C1193       C  0.73814643  0.15753992  0.12300770     0.20620
C1194       C  0.77175117  0.15327413  0.11950299     0.25660
C1195       C  0.79047882  0.13831886  0.15180130    -0.22340
C1196       C  0.77240442  0.11662283  0.18071471     0.20560
F1197       F  0.78580704  0.08914889  0.20474534    -0.12290
F1198       F  0.72486809  0.09252101  0.20819598    -0.14660
F1199       F  0.78651155  0.16907035  0.08666734    -0.14660
F1200       F  0.72246650  0.17586554  0.09271810    -0.12290
C1201       C  0.67147272  0.27118456  0.12829322     0.25720
C1202       C  0.68648222  0.29279601  0.15996460    -0.22390
C1203       C  0.70501924  0.26959279  0.18618966     0.20620
C1204       C  0.70588688  0.22798820  0.18445048     0.25660
C1205       C  0.68716350  0.20565481  0.15726205    -0.22340
C1206       C  0.67169325  0.22848569  0.12706703     0.20560
F1207       F  0.65763350  0.21022820  0.09546008    -0.12290
F1208       F  0.65740745  0.29070572  0.09757503    -0.14660
F1209       F  0.72285528  0.20885956  0.21279120    -0.14660
F1210       F  0.72083941  0.28753044  0.21631511    -0.12290
C1211       C  0.73623179  0.34430734  0.12312903     0.25720
C1212       C  0.72134863  0.35406437  0.15997201    -0.22390
C1213       C  0.74210947  0.37393405  0.18731429     0.20620
C1214       C  0.77561116  0.37364695  0.18289057     0.25660
C1215       C  0.79003690  0.35101069  0.15278336    -0.22340
C1216       C  0.77012927  0.34369230  0.11918359     0.20560
F1217       F  0.78233221  0.32833560  0.08530791    -0.12290
F1218       F  0.71811297  0.33120465  0.09208690    -0.14660
F1219       F  0.79380533  0.39308995  0.21032598    -0.14660
F1220       F  0.73139343  0.39525707  0.21793438    -0.12290
C1221       C  0.65934555  0.31370919  0.27631587     0.25720
C1222       C  0.67457008  0.34488775  0.29767654    -0.22390
C1223       C  0.67321030  0.38205522  0.27686132     0.20620
C1224       C  0.67262943  0.38253249  0.23417786     0.25660
C1225       C  0.67298753  0.34581489  0.21297078    -0.22340
C1226       C  0.65851008  0.31417318  0.23500467     0.20560
F1227       F  0.64265905  0.28382474  0.21714037    -0.12290
F1228       F  0.64447365  0.28284160  0.29498160    -0.14660
F1229       F  0.67406011  0.41804057  0.21426428    -0.14660
F1230       F  0.67444804  0.41713013  0.29704240    -0.12290
C1231       C  0.74174158  0.34432942  0.38311133     0.25720
C1232       C  0.72483518  0.35349236  0.34739288    -0.22390
C1233       C  0.74402483  0.37351150  0.31815135     0.20620
C1234       C  0.77761761  0.37132964  0.31847582     0.25660
C1235       C  0.79361566  0.34934210  0.34811989    -0.22340
C1236       C  0.77595677  0.34468695  0.38418510     0.20560
F1237       F  0.79053703  0.33128392  0.41765238    -0.12290
F1238       F  0.72536777  0.33082106  0.41568810    -0.14660
F1239       F  0.79426465  0.39034477  0.28898183    -0.14660
F1240       F  0.73182134  0.39841669  0.29098791    -0.12290
C1241       C  0.67055953  0.11315954  0.27090099     0.25720
C1242       C  0.67112010  0.14997709  0.29234777    -0.22390
C1243       C  0.65733234  0.18183635  0.27160267     0.20620
C1244       C  0.65690968  0.18232572  0.23019934     0.25660
C1245       C  0.67090870  0.15120445  0.20806190    -0.22340
C1246       C  0.66880122  0.11393250  0.22846836     0.20560
F1247       F  0.66744773  0.07903345  0.20796481    -0.12290
F1248       F  0.67614007  0.07792515  0.28963940    -0.14660
F1249       F  0.64176169  0.21270521  0.21215029    -0.14660
F1250       F  0.64337085  0.21194262  0.29101813    -0.12290
C1251       C  0.74102162  0.13108482  0.36906616     0.25720
C1252       C  0.72296141  0.13881883  0.33396074    -0.22390
C1253       C  0.74084882  0.13772975  0.29832386     0.20620
C1254       C  0.77398318  0.14091965  0.29812940     0.25660
C1255       C  0.79330996  0.13564786  0.33298433    -0.22340
C1256       C  0.77484122  0.12462143  0.36758916     0.20560
F1257       F  0.78870793  0.11097966  0.40117663    -0.12290
F1258       F  0.72659432  0.13213137  0.40534044    -0.14660
F1259       F  0.78509995  0.15635095  0.26330249    -0.14660
F1260       F  0.72758117  0.14460470  0.26248113    -0.12290
C1261       C  0.70943774  0.22801757  0.31716440     0.25720
C1262       C  0.69216603  0.20275770  0.34421448    -0.22390
C1263       C  0.67984071  0.22330514  0.37809156     0.20620
C1264       C  0.67895251  0.26617519  0.37952557     0.25660
C1265       C  0.69174720  0.29044637  0.34796640    -0.22340
C1266       C  0.70933411  0.26967058  0.31926699     0.20560
F1267       F  0.72446421  0.29047293  0.28994397    -0.12290
F1268       F  0.72586588  0.21327765  0.28636287    -0.14660
F1269       F  0.66640475  0.28330403  0.41243958    -0.14660
F1270       F  0.66930681  0.20254126  0.41056941    -0.12290
C1271       C  0.60991543  0.12633468  0.39249398     0.25720
C1272       C  0.61646257  0.08827346  0.40805670    -0.22390
C1273       C  0.64665542  0.07186158  0.40034697     0.20620
C1274       C  0.66965697  0.09280445  0.37725113     0.25660
C1275       C  0.66404882  0.13243557  0.36304322    -0.22340
C1276       C  0.63279572  0.14748098  0.36993316     0.20560
F1277       F  0.62363225  0.18302132  0.35456916    -0.12290
F1278       F  0.58099813  0.14353596  0.39887360    -0.14660
F1279       F  0.69596999  0.07208051  0.36638437    -0.14660
F1280       F  0.65332060  0.03421774  0.41294997    -0.12290
C1281       C  0.66905799  0.39780576  0.11926581     0.25720
C1282       C  0.66090605  0.36237079  0.14123702    -0.22390
C1283       C  0.62810457  0.34993564  0.14065954     0.20620
C1284       C  0.60521196  0.37013500  0.11832090     0.25660
C1285       C  0.61367224  0.40442829  0.09588231    -0.22340
C1286       C  0.64595700  0.41787955  0.09659754     0.20560
F1287       F  0.65527388  0.45150726  0.07638064    -0.12290
F1288       F  0.69882473  0.41506689  0.12069061    -0.14660
F1289       F  0.57453378  0.35531358  0.11860751    -0.14660
F1290       F  0.61766110  0.31710248  0.16091175    -0.12290
C1291       C  0.90762246  0.11247450  0.12232520     0.25720
C1292       C  0.89866733  0.08622101  0.09150686    -0.22390
C1293       C  0.86580136  0.08137193  0.08269109     0.20620
C1294       C  0.84251585  0.10241916  0.10366602     0.25660
C1295       C  0.85134862  0.13041482  0.13374218    -0.22340
C1296       C  0.88465123  0.13403515  0.14281367     0.20560
F1297       F  0.89568754  0.15945289  0.17130229    -0.12290
F1298       F  0.93889365  0.11768829  0.13322995    -0.14660
F1299       F  0.81154382  0.09436212  0.09362828    -0.14660
F1300       F  0.85577373  0.05608140  0.05354250    -0.12290
C1301       C  0.62858208  0.14610709  0.13499799     0.25720
C1302       C  0.66148378  0.13582350  0.13560980    -0.22390
C1303       C  0.67025433  0.10171562  0.11285629     0.20620
C1304       C  0.64735515  0.08002795  0.09080519     0.25660
C1305       C  0.61482331  0.09062275  0.09112317    -0.22340
C1306       C  0.60594227  0.12434936  0.11315564     0.20560
F1307       F  0.57500225  0.13681780  0.11395300    -0.12290
F1308       F  0.61766115  0.17776433  0.15551631    -0.14660
F1309       F  0.65714594  0.04750509  0.07031685    -0.14660
F1310       F  0.70043854  0.08702312  0.11282044    -0.12290
C1311       C  0.86291711  0.39311299  0.34861467     0.25720
C1312       C  0.85238539  0.35501233  0.36313028    -0.22390
C1313       C  0.86289954  0.34403566  0.40206718     0.20620
C1314       C  0.88575109  0.36710697  0.42240582     0.25660
C1315       C  0.89773493  0.40284722  0.40611700    -0.22340
C1316       C  0.88595094  0.41611405  0.36937650     0.20560
F1317       F  0.89690875  0.45128941  0.35345715    -0.12290
F1318       F  0.85143520  0.40823702  0.31401081    -0.14660
F1319       F  0.89649868  0.35417856  0.45829772    -0.14660
F1320       F  0.85097455  0.31130913  0.42162183    -0.12290
C1321       C  0.87321994  0.10715690  0.42623387     0.25720
C1322       C  0.89879092  0.08694942  0.40861867    -0.22390
C1323       C  0.90341451  0.09048165  0.36764798     0.20620
C1324       C  0.88282856  0.11292576  0.34429343     0.25660
C1325       C  0.85406487  0.12977579  0.36024412    -0.22340
C1326       C  0.85199983  0.12955597  0.40263447     0.20560
F1327       F  0.83201384  0.15474323  0.42183417    -0.12290
F1328       F  0.87022988  0.10778971  0.46650735    -0.14660
F1329       F  0.89446918  0.12157555  0.30744164    -0.14660
F1330       F  0.92922978  0.07350772  0.34995932    -0.12290
C1331       C  0.67203901  0.39456751  0.39047587     0.25720
C1332       C  0.66463358  0.35823883  0.37018980    -0.22390
C1333       C  0.63224022  0.34412283  0.37265967     0.20620
C1334       C  0.60871327  0.36499450  0.39318972     0.25660
C1335       C  0.61622866  0.40104116  0.41259501    -0.22340
C1336       C  0.64839658  0.41496712  0.41178210     0.20560
F1337       F  0.65702251  0.44955794  0.43023314    -0.12290
F1338       F  0.70152772  0.41252192  0.38836283    -0.14660
F1339       F  0.57829614  0.34933509  0.39396480    -0.14660
F1340       F  0.62260443  0.30957500  0.35536784    -0.12290
C1341       C  0.88574238  0.41547571  0.13103205     0.25720
C1342       C  0.89506474  0.40421983  0.09270228    -0.22390
C1343       C  0.87892021  0.37254644  0.07424124     0.20620
C1344       C  0.85546509  0.35015794  0.09468392     0.25660
C1345       C  0.84826558  0.35776054  0.13548704    -0.22340
C1346       C  0.86161408  0.39366072  0.15151280     0.20560
F1347       F  0.85192711  0.40777887  0.18721839    -0.12290
F1348       F  0.89981841  0.44786546  0.14851404    -0.14660
F1349       F  0.84085773  0.32022765  0.07405582    -0.14660
F1350       F  0.88649818  0.36250052  0.03634974    -0.12290
O1351       O  0.95242118  0.41627389  0.91911473    -0.73170
O1352       O  0.91450044  0.45066779  0.95377618    -0.52080
C1353       C  0.92315304  0.42513474  0.92743879     0.80560
O1354       O  0.55899343  0.41741714  0.58079914    -0.57770
O1355       O  0.59783460  0.45190610  0.54625180    -0.50800
C1356       C  0.58866164  0.42608789  0.57278472     0.72570
O1357       O  0.95033297  0.41693395  0.58128156    -0.72330
O1358       O  0.91333618  0.44990986  0.54355049    -0.52890
C1359       C  0.92126794  0.42536106  0.57135878     0.78570
O1360       O  0.56100351  0.41576497  0.92329125    -0.57470
O1361       O  0.59889984  0.45045288  0.95860869    -0.50590
C1362       C  0.59045920  0.42397467  0.93280931     0.75170
Zr1363     Zr  0.00646839  0.43577297  0.94104613     2.54710
O1364       O  0.00490922  0.36290429  0.94275657    -0.78040
O1365       O  0.50908983  0.43859937  0.86861059    -0.91460
Zr1366     Zr  0.00498584  0.43461600  0.55902791     2.64680
O1367       O  0.00346144  0.36193499  0.55376029    -0.96410
O1368       O  0.50510315  0.43189675  0.63149697    -0.78470
O1369       O  0.97413061  0.43388748  0.49959369    -0.81830
O1370       O  0.53707741  0.43465019  0.00054016    -2.16540
O1371       O  0.56163366  0.07353396  0.92138603    -0.65220
O1372       O  0.59938894  0.03904387  0.95603091    -0.49790
C1373       C  0.59097893  0.06531367  0.92995847     0.73550
O1374       O  0.95312132  0.07329774  0.57691349    -0.58130
O1375       O  0.91470647  0.03750998  0.54382912    -0.50110
C1376       C  0.92363586  0.06421149  0.56918201     0.75350
O1377       O  0.56043013  0.07350571  0.57849466    -0.69520
O1378       O  0.59873918  0.04062422  0.54387867    -0.48200
C1379       C  0.58989305  0.06655210  0.56972372     0.76740
O1380       O  0.95292400  0.07409438  0.92338720    -0.64850
O1381       O  0.91390626  0.03996220  0.95836185    -0.52050
C1382       C  0.92329571  0.06594174  0.93220937     0.75120
Zr1383     Zr  0.50719801  0.05411293  0.94139794     2.77540
O1384       O  0.00792045  0.12700378  0.94303402    -0.95600
O1385       O  0.00640810  0.05323270  0.86892273    -0.76420
Zr1386     Zr  0.50667207  0.05272808  0.55890118     2.70060
O1387       O  0.50782699  0.12559003  0.55947160    -0.77670
O1388       O  0.00535257  0.04830235  0.63130259    -0.96750
Zr1389     Zr  0.94402585  0.99402155  0.49953217     2.21500
Zr1390     Zr  0.56878497  0.49506012  0.00079785     2.11130
O1391       O  0.53833675  0.05488022  0.00034194    -2.45440
O1392       O  0.97550877  0.05431404  0.49997509    -0.77460
O1393       O  0.53839383  0.49532280  0.94057933    -0.69660
O1394       O  0.97449088  0.99368317  0.55965742    -2.30620
O1395       O  0.97543592  0.99468988  0.93990804    -2.26820
O1396       O  0.53743385  0.49386434  0.56039229    -0.71420
H1397       H  0.55062306  0.41146471  0.00086590     0.80580
H1398       H  0.96066756  0.99378380  0.58281741     0.81670
H1399       H  0.55222648  0.07838883  0.00040438     0.83890
H1400       H  0.96186795  0.99502835  0.91657916     0.81500
H1401       H  0.99553821  0.45747608  0.63974404     0.44530
H1402       H  0.52428086  0.03215967  0.63840207     0.43500
H1403       H  0.99914716  0.13340368  0.53315330     0.43180
H1404       H  0.52768214  0.13440509  0.95791376     0.41120
H1405       H  0.51960679  0.02998152  0.86172506     0.44250
H1406       H  0.99057964  0.45504266  0.86056087     0.39030
H1407       H  0.99019716  0.35596859  0.96510031     0.45150
H1408       H  0.52408672  0.35511251  0.54088134     0.41560
H1409       H  0.51253491  0.13533198  0.91521055     0.46480
H1410       H  0.50318818  0.41113685  0.86002116     0.45210
H1411       H  0.00564974  0.35226205  0.58155267     0.45340
H1412       H  0.51100441  0.07569947  0.64032009     0.45700
C1413       C  0.68757291  0.15578565  0.83441785    -0.00370
C1414       C  0.68870931  0.33768928  0.84139430    -0.00370
C1415       C  0.68518827  0.33974853  0.66827617    -0.00370
C1416       C  0.68495727  0.15843704  0.66420928    -0.00370
C1417       C  0.82943619  0.15384247  0.83392883    -0.00370
C1418       C  0.82658196  0.15463664  0.65823959    -0.00370
C1419       C  0.82378845  0.33081788  0.65937394    -0.00370
C1420       C  0.82720486  0.32902425  0.83998393    -0.00370
C1421       C  0.85965824  0.33598016  0.72728896     0.25720
C1422       C  0.83073380  0.32611389  0.70617217    -0.22390
C1423       C  0.80637982  0.30882147  0.73038294     0.20620
C1424       C  0.80800185  0.30694237  0.77127603     0.25660
C1425       C  0.83279713  0.32535630  0.79318220    -0.22340
C1426       C  0.86043100  0.33666010  0.77008851     0.20560
F1427       F  0.88868868  0.34600277  0.78821396    -0.12290
F1428       F  0.88753873  0.34329479  0.70725297    -0.14660
F1429       F  0.78266924  0.28926466  0.78948322    -0.14660
F1430       F  0.77830762  0.29617297  0.71547830    -0.12290
C1431       C  0.79959954  0.22196345  0.65916750     0.25720
C1432       C  0.82591375  0.19994972  0.64549447    -0.22390
C1433       C  0.85164847  0.22335483  0.62866907     0.20620
C1434       C  0.85221756  0.26544814  0.63411585     0.25660
C1435       C  0.82357580  0.28621035  0.64422158    -0.22340
C1436       C  0.79604764  0.26133277  0.64909351     0.20560
F1437       F  0.76566801  0.27434846  0.65085143    -0.12290
F1438       F  0.77775074  0.20607648  0.68493982    -0.14660
F1439       F  0.88111225  0.28486986  0.63130298    -0.14660
F1440       F  0.87792586  0.20674299  0.61228517    -0.12290
C1441       C  0.84134370  0.11761253  0.72514445     0.25720
C1442       C  0.83718659  0.15365295  0.70360253    -0.22390
C1443       C  0.84593798  0.18871644  0.72518148     0.20620
C1444       C  0.84650842  0.18930920  0.76623790     0.25660
C1445       C  0.84102449  0.15400767  0.78915385    -0.22340
C1446       C  0.84086262  0.11745950  0.76715441     0.20560
F1447       F  0.83746727  0.08168379  0.78632143    -0.12290
F1448       F  0.84403619  0.08224481  0.70578326    -0.14660
F1449       F  0.84939032  0.22640841  0.78129099    -0.14660
F1450       F  0.85515357  0.22373504  0.70785928    -0.12290
C1451       C  0.80039010  0.21889029  0.85721249     0.25720
C1452       C  0.82908309  0.19784983  0.85050239    -0.22390
C1453       C  0.85806016  0.22063047  0.85541734     0.20620
C1454       C  0.85754551  0.26289503  0.85422617     0.25660
C1455       C  0.82804630  0.28386886  0.85384348    -0.22340
C1456       C  0.79996891  0.25996646  0.85974576     0.20560
F1457       F  0.76999639  0.27444877  0.86050658    -0.12290
F1458       F  0.77086695  0.20192643  0.85754831    -0.14660
F1459       F  0.88601803  0.28293843  0.84938089    -0.14660
F1460       F  0.88708129  0.20287953  0.85264223    -0.12290
C1461       C  0.73884387  0.11913562  0.68315848     0.25720
C1462       C  0.72106181  0.14458915  0.65766214    -0.22390
C1463       C  0.73814642  0.15753982  0.62300771     0.20620
C1464       C  0.77175116  0.15327399  0.61950296     0.25660
C1465       C  0.79047883  0.13831878  0.65180127    -0.22340
C1466       C  0.77240444  0.11662279  0.68071473     0.20560
F1467       F  0.78580707  0.08914885  0.70474535    -0.12290
F1468       F  0.72486812  0.09252104  0.70819609    -0.14660
F1469       F  0.78651151  0.16907018  0.58666727    -0.14660
F1470       F  0.72246647  0.17586541  0.59271811    -0.12290
C1471       C  0.67147280  0.27118453  0.62829321     0.25720
C1472       C  0.68648228  0.29279599  0.65996460    -0.22390
C1473       C  0.70501931  0.26959278  0.68618967     0.20620
C1474       C  0.70588691  0.22798818  0.68445053     0.25660
C1475       C  0.68716354  0.20565477  0.65726210    -0.22340
C1476       C  0.67169330  0.22848565  0.62706705     0.20560
F1477       F  0.65763354  0.21022815  0.59546012    -0.12290
F1478       F  0.65740755  0.29070568  0.59757501    -0.14660
F1479       F  0.72285531  0.20885954  0.71279125    -0.14660
F1480       F  0.72083952  0.28753044  0.71631509    -0.12290
C1481       C  0.73623184  0.34430745  0.62312904     0.25720
C1482       C  0.72134867  0.35406436  0.65997205    -0.22390
C1483       C  0.74210951  0.37393387  0.68731444     0.20620
C1484       C  0.77561119  0.37364675  0.68289075     0.25660
C1485       C  0.79003694  0.35101064  0.65278344    -0.22340
C1486       C  0.77012932  0.34369244  0.61918361     0.20560
F1487       F  0.78233230  0.32833595  0.58530785    -0.12290
F1488       F  0.71811303  0.33120487  0.59208686    -0.14660
F1489       F  0.79380535  0.39308966  0.71032622    -0.14660
F1490       F  0.73139348  0.39525673  0.71793464    -0.12290
C1491       C  0.65934559  0.31370917  0.77631587     0.25720
C1492       C  0.67457010  0.34488776  0.79767653    -0.22390
C1493       C  0.67321031  0.38205521  0.77686129     0.20620
C1494       C  0.67262943  0.38253247  0.73417783     0.25660
C1495       C  0.67298755  0.34581486  0.71297077    -0.22340
C1496       C  0.65851012  0.31417315  0.73500467     0.20560
F1497       F  0.64265909  0.28382470  0.71714037    -0.12290
F1498       F  0.64447367  0.28284161  0.79498161    -0.14660
F1499       F  0.67406016  0.41804054  0.71426424    -0.14660
F1500       F  0.67444799  0.41713013  0.79704236    -0.12290
C1501       C  0.74174159  0.34432948  0.88311132     0.25720
C1502       C  0.72483518  0.35349240  0.84739288    -0.22390
C1503       C  0.74402481  0.37351152  0.81815133     0.20620
C1504       C  0.77761758  0.37132953  0.81847571     0.25660
C1505       C  0.79361564  0.34934204  0.84811981    -0.22340
C1506       C  0.77595678  0.34468699  0.88418506     0.20560
F1507       F  0.79053707  0.33128404  0.91765235    -0.12290
F1508       F  0.72536779  0.33082119  0.91568812    -0.14660
F1509       F  0.79426461  0.39034464  0.78898170    -0.14660
F1510       F  0.73182132  0.39841692  0.79098809    -0.12290
C1511       C  0.67055950  0.11315955  0.77090107     0.25720
C1512       C  0.67112007  0.14997711  0.79234784    -0.22390
C1513       C  0.65733233  0.18183637  0.77160270     0.20620
C1514       C  0.65690968  0.18232571  0.73019937     0.25660
C1515       C  0.67090872  0.15120444  0.70806195    -0.22340
C1516       C  0.66880123  0.11393250  0.72846844     0.20560
F1517       F  0.66744776  0.07903344  0.70796489    -0.12290
F1518       F  0.67614004  0.07792517  0.78963949    -0.14660
F1519       F  0.64176167  0.21270517  0.71215029    -0.14660
F1520       F  0.64337085  0.21194266  0.79101813    -0.12290
C1521       C  0.74102159  0.13108477  0.86906619     0.25720
C1522       C  0.72296137  0.13881883  0.83396078    -0.22390
C1523       C  0.74084877  0.13772977  0.79832390     0.20620
C1524       C  0.77398313  0.14091966  0.79812942     0.25660
C1525       C  0.79330993  0.13564787  0.83298434    -0.22340
C1526       C  0.77484119  0.12462138  0.86758916     0.20560
F1527       F  0.78870791  0.11097958  0.90117661    -0.12290
F1528       F  0.72659431  0.13213130  0.90534048    -0.14660
F1529       F  0.78509989  0.15635089  0.76330248    -0.14660
F1530       F  0.72758112  0.14460474  0.76248118    -0.12290
C1531       C  0.70943777  0.22801760  0.81716443     0.25720
C1532       C  0.69216604  0.20275775  0.84421451    -0.22390
C1533       C  0.67984074  0.22330520  0.87809160     0.20620
C1534       C  0.67895254  0.26617525  0.87952559     0.25660
C1535       C  0.69174723  0.29044641  0.84796641    -0.22340
C1536       C  0.70933416  0.26967062  0.81926702     0.20560
F1537       F  0.72446430  0.29047295  0.78994402    -0.12290
F1538       F  0.72586592  0.21327768  0.78636292    -0.14660
F1539       F  0.66640479  0.28330409  0.91243959    -0.14660
F1540       F  0.66930688  0.20254134  0.91056947    -0.12290
C1541       C  0.60991542  0.12633498  0.89249425     0.25720
C1542       C  0.61646252  0.08827377  0.90805701    -0.22390
C1543       C  0.64665535  0.07186182  0.90034725     0.20620
C1544       C  0.66965688  0.09280459  0.87725130     0.25660
C1545       C  0.66404877  0.13243569  0.86304332    -0.22340
C1546       C  0.63279570  0.14748118  0.86993330     0.20560
F1547       F  0.62363224  0.18302148  0.85456919    -0.12290
F1548       F  0.58099815  0.14353633  0.89887389    -0.14660
F1549       F  0.69596984  0.07208056  0.86638447    -0.14660
F1550       F  0.65332048  0.03421797  0.91295026    -0.12290
C1551       C  0.66905801  0.39780577  0.61926587     0.25720
C1552       C  0.66090609  0.36237076  0.64123702    -0.22390
C1553       C  0.62810462  0.34993557  0.64065949     0.20620
C1554       C  0.60521200  0.37013493  0.61832085     0.25660
C1555       C  0.61367226  0.40442826  0.59588232    -0.22340
C1556       C  0.64595701  0.41787957  0.59659760     0.20560
F1557       F  0.65527388  0.45150732  0.57638077    -0.12290
F1558       F  0.69882473  0.41506695  0.62069075    -0.14660
F1559       F  0.57453383  0.35531347  0.61860742    -0.14660
F1560       F  0.61766116  0.31710238  0.66091167    -0.12290
C1561       C  0.90762247  0.11247445  0.62232515     0.25720
C1562       C  0.89866734  0.08622105  0.59150673    -0.22390
C1563       C  0.86580138  0.08137199  0.58269095     0.20620
C1564       C  0.84251586  0.10241917  0.60366593     0.25660
C1565       C  0.85134862  0.13041477  0.63374215    -0.22340
C1566       C  0.88465123  0.13403505  0.64281368     0.20560
F1567       F  0.89568754  0.15945267  0.67130240    -0.12290
F1568       F  0.93889366  0.11768817  0.63322995    -0.14660
F1569       F  0.81154384  0.09436210  0.59362820    -0.14660
F1570       F  0.85577376  0.05608149  0.55354232    -0.12290
C1571       C  0.62858211  0.14610698  0.63499805     0.25720
C1572       C  0.66148381  0.13582341  0.63560988    -0.22390
C1573       C  0.67025436  0.10171546  0.61285646     0.20620
C1574       C  0.64735519  0.08002770  0.59080544     0.25660
C1575       C  0.61482335  0.09062249  0.59112338    -0.22340
C1576       C  0.60594230  0.12434915  0.61315579     0.20560
F1577       F  0.57500228  0.13681759  0.61395310    -0.12290
F1578       F  0.61766118  0.17776431  0.65551623    -0.14660
F1579       F  0.65714599  0.04750482  0.57031714    -0.14660
F1580       F  0.70043860  0.08702303  0.61282058    -0.12290
C1581       C  0.86291696  0.39311307  0.84861478     0.25720
C1582       C  0.85238535  0.35501232  0.86313029    -0.22390
C1583       C  0.86289959  0.34403558  0.90206714     0.20620
C1584       C  0.88575115  0.36710689  0.92240577     0.25660
C1585       C  0.89773489  0.40284722  0.90611704    -0.22340
C1586       C  0.88595078  0.41611414  0.86937663     0.20560
F1587       F  0.89690847  0.45128960  0.85345736    -0.12290
F1588       F  0.85143497  0.40823715  0.81401099    -0.14660
F1589       F  0.89649883  0.35417840  0.95829762    -0.14660
F1590       F  0.85097466  0.31130901  0.92162176    -0.12290
C1591       C  0.87321992  0.10715675  0.92623378     0.25720
C1592       C  0.89879088  0.08694928  0.90861856    -0.22390
C1593       C  0.90341449  0.09048160  0.86764787     0.20620
C1594       C  0.88282855  0.11292578  0.84429335     0.25660
C1595       C  0.85406485  0.12977576  0.86024407    -0.22340
C1596       C  0.85199981  0.12955586  0.90263442     0.20560
F1597       F  0.83201384  0.15474312  0.92183417    -0.12290
F1598       F  0.87022987  0.10778952  0.96650726    -0.14660
F1599       F  0.89446919  0.12157571  0.80744160    -0.14660
F1600       F  0.92922977  0.07350772  0.84995917    -0.12290
C1601       C  0.67203900  0.39456757  0.89047581     0.25720
C1602       C  0.66463358  0.35823886  0.87018978    -0.22390
C1603       C  0.63224023  0.34412284  0.87265967     0.20620
C1604       C  0.60871327  0.36499450  0.89318972     0.25660
C1605       C  0.61622865  0.40104118  0.91259498    -0.22340
C1606       C  0.64839656  0.41496718  0.91178203     0.20560
F1607       F  0.65702247  0.44955802  0.93023303    -0.12290
F1608       F  0.70152769  0.41252201  0.88836273    -0.14660
F1609       F  0.57829615  0.34933506  0.89396484    -0.14660
F1610       F  0.62260445  0.30957500  0.85536786    -0.12290
C1611       C  0.88574227  0.41547579  0.63103187     0.25720
C1612       C  0.89506475  0.40421979  0.59270218    -0.22390
C1613       C  0.87892034  0.37254624  0.57424122     0.20620
C1614       C  0.85546520  0.35015777  0.59468389     0.25660
C1615       C  0.84826560  0.35776049  0.63548696    -0.22340
C1616       C  0.86161398  0.39366078  0.65151262     0.20560
F1617       F  0.85192692  0.40777900  0.68721815    -0.12290
F1618       F  0.89981818  0.44786566  0.64851376    -0.14660
F1619       F  0.84085787  0.32022745  0.57405581    -0.14660
F1620       F  0.88649844  0.36250018  0.53634979    -0.12290
O1621       O  0.95242120  0.91627391  0.41911473    -0.73170
O1622       O  0.91450046  0.95066777  0.45377620    -0.52080
C1623       C  0.92315306  0.92513475  0.42743878     0.80560
O1624       O  0.55899336  0.91741702  0.08079911    -0.57770
O1625       O  0.59783453  0.95190598  0.04625177    -0.50800
C1626       C  0.58866157  0.92608776  0.07278469     0.72570
O1627       O  0.95033293  0.91693407  0.08128184    -0.72330
O1628       O  0.91333614  0.94990991  0.04355074    -0.52890
C1629       C  0.92126791  0.92536117  0.07135906     0.78570
O1630       O  0.56100352  0.91576496  0.42329128    -0.57470
O1631       O  0.59889985  0.95045287  0.45860871    -0.50590
C1632       C  0.59045922  0.92397466  0.43280933     0.75170
Zr1633     Zr  0.00646841  0.93577296  0.44104616     2.54710
O1634       O  0.00490931  0.86290428  0.44275667    -0.78040
O1635       O  0.50908989  0.93859932  0.36861061    -0.91460
Zr1636     Zr  0.00498577  0.93461602  0.05902814     2.64680
O1637       O  0.00346160  0.86193502  0.05376027    -0.96410
O1638       O  0.50510286  0.93189732  0.13149712    -0.78470
O1639       O  0.97413042  0.93388726  0.99959388    -0.81830
O1640       O  0.53707718  0.93465059  0.50054017    -2.16540
O1641       O  0.56163374  0.57353365  0.42138574    -0.65220
O1642       O  0.59938902  0.53904369  0.45603075    -0.49790
C1643       C  0.59097900  0.56531339  0.42995822     0.73550
O1644       O  0.95312131  0.57329778  0.07691340    -0.58130
O1645       O  0.91470646  0.53751003  0.04382905    -0.50110
C1646       C  0.92363586  0.56421155  0.06918193     0.75350
O1647       O  0.56043013  0.57350571  0.07849465    -0.69520
O1648       O  0.59873918  0.54062423  0.04387863    -0.48200
C1649       C  0.58989305  0.56655211  0.06972370     0.76740
O1650       O  0.95292405  0.57409453  0.42338729    -0.64850
O1651       O  0.91390630  0.53996230  0.45836191    -0.52050
C1652       C  0.92329574  0.56594188  0.43220947     0.75120
Zr1653     Zr  0.50719808  0.55411298  0.44139794     2.77540
O1654       O  0.00792045  0.62700386  0.44303411    -0.95600
O1655       O  0.00640848  0.55323404  0.36892266    -0.76420
Zr1656     Zr  0.50667206  0.55272809  0.05890117     2.70060
O1657       O  0.50782702  0.62559004  0.05947156    -0.77670
O1658       O  0.00535258  0.54830242  0.13130254    -0.96750
Zr1659     Zr  0.94402585  0.49402157  0.99953213     2.21500
Zr1660     Zr  0.56878498  0.99506011  0.50079787     2.11130
O1661       O  0.53833351  0.55487468  0.50034188    -2.45440
O1662       O  0.97550879  0.55431402  0.99997504    -0.77460
O1663       O  0.53839383  0.99532280  0.44057936    -0.69660
O1664       O  0.97449144  0.49368319  0.05965645    -2.30620
O1665       O  0.97544027  0.49468989  0.43991517    -2.26820
O1666       O  0.53743392  0.99386435  0.06039251    -0.71420
H1667       H  0.55062285  0.91146507  0.50086591     0.80580
H1668       H  0.96066807  0.49378383  0.08281652     0.81670
H1669       H  0.55222355  0.57838378  0.50040434     0.83890
H1670       H  0.96187192  0.49502845  0.41658564     0.81500
H1671       H  0.99553781  0.95747701  0.13974392     0.44530
H1672       H  0.52428086  0.53215968  0.13840206     0.43500
H1673       H  0.99914718  0.63340372  0.03315332     0.43180
H1674       H  0.52768229  0.63440506  0.45791378     0.41120
H1675       H  0.51960607  0.52998172  0.36172477     0.44250
H1676       H  0.99057957  0.95504275  0.36056094     0.39030
H1677       H  0.99019714  0.85596859  0.46510032     0.45150
H1678       H  0.52408675  0.85511255  0.04088130     0.41560
H1679       H  0.51253487  0.63533220  0.41521071     0.46480
H1680       H  0.50318822  0.91113680  0.36002118     0.45210
H1681       H  0.00564998  0.85226215  0.08155267     0.45340
H1682       H  0.51100439  0.57569947  0.14032008     0.45700
C1683       C  0.68757296  0.65578560  0.33441780    -0.00370
C1684       C  0.68870930  0.83768924  0.34139432    -0.00370
C1685       C  0.68518822  0.83974854  0.16827617    -0.00370
C1686       C  0.68495728  0.65843706  0.16420923    -0.00370
C1687       C  0.82943623  0.65384246  0.33392882    -0.00370
C1688       C  0.82658200  0.65463667  0.15823962    -0.00370
C1689       C  0.82378839  0.83081794  0.15937402    -0.00370
C1690       C  0.82720486  0.82902426  0.33998398    -0.00370
C1691       C  0.85965822  0.83597998  0.22728901     0.25720
C1692       C  0.83073371  0.82611397  0.20617225    -0.22390
C1693       C  0.80637966  0.80882173  0.23038303     0.20620
C1694       C  0.80800175  0.80694252  0.27127610     0.25660
C1695       C  0.83279710  0.82535630  0.29318225    -0.22340
C1696       C  0.86043100  0.83665992  0.27008855     0.20560
F1697       F  0.88868873  0.84600240  0.28821399    -0.12290
F1698       F  0.88753873  0.84329438  0.20725298    -0.14660
F1699       F  0.78266910  0.78926492  0.28948329    -0.14660
F1700       F  0.77830739  0.79617351  0.21547841    -0.12290
C1701       C  0.79959961  0.72196347  0.15916782     0.25720
C1702       C  0.82591378  0.69994978  0.14549460    -0.22390
C1703       C  0.85164841  0.72335489  0.12866902     0.20620
C1704       C  0.85221750  0.76544821  0.13411577     0.25660
C1705       C  0.82357577  0.78621040  0.14422167    -0.22340
C1706       C  0.79604766  0.76133278  0.14909384     0.20560
F1707       F  0.76566802  0.77434841  0.15085175    -0.12290
F1708       F  0.77775087  0.70607644  0.18494018    -0.14660
F1709       F  0.88111217  0.78486995  0.13130269    -0.14660
F1710       F  0.87792574  0.70674305  0.11228496    -0.12290
C1711       C  0.84134372  0.61761247  0.22514445     0.25720
C1712       C  0.83718667  0.65365291  0.20360254    -0.22390
C1713       C  0.84593818  0.68871636  0.22518148     0.20620
C1714       C  0.84650862  0.68930913  0.26623790     0.25660
C1715       C  0.84102457  0.65400762  0.28915385    -0.22340
C1716       C  0.84086263  0.61745945  0.26715442     0.20560
F1717       F  0.83746723  0.58168374  0.28632144    -0.12290
F1718       F  0.84403616  0.58224476  0.20578325    -0.14660
F1719       F  0.84939075  0.72640831  0.28129099    -0.14660
F1720       F  0.85515393  0.72373489  0.20785925    -0.12290
C1721       C  0.80039010  0.71889030  0.35721236     0.25720
C1722       C  0.82908311  0.69784985  0.35050234    -0.22390
C1723       C  0.85806016  0.72063048  0.35541740     0.20620
C1724       C  0.85754551  0.76289504  0.35422626     0.25660
C1725       C  0.82804630  0.78386887  0.35384352    -0.22340
C1726       C  0.79996890  0.75996646  0.35974569     0.20560
F1727       F  0.76999638  0.77444876  0.36050651    -0.12290
F1728       F  0.77086695  0.70192644  0.35754807    -0.14660
F1729       F  0.88601804  0.78293845  0.34938108    -0.14660
F1730       F  0.88708130  0.70287954  0.35264239    -0.12290
C1731       C  0.73884388  0.61913564  0.18315842     0.25720
C1732       C  0.72106182  0.64458919  0.15766210    -0.22390
C1733       C  0.73814646  0.65753992  0.12300771     0.20620
C1734       C  0.77175120  0.65327413  0.11950299     0.25660
C1735       C  0.79047885  0.63831885  0.15180129    -0.22340
C1736       C  0.77240445  0.61662283  0.18071471     0.20560
F1737       F  0.78580707  0.58914889  0.20474534    -0.12290
F1738       F  0.72486812  0.59252101  0.20819598    -0.14660
F1739       F  0.78651157  0.66907035  0.08666733    -0.14660
F1740       F  0.72246651  0.67586554  0.09271811    -0.12290
C1741       C  0.67147272  0.77118454  0.12829322     0.25720
C1742       C  0.68648221  0.79279599  0.15996461    -0.22390
C1743       C  0.70501924  0.76959279  0.18618966     0.20620
C1744       C  0.70588688  0.72798819  0.18445049     0.25660
C1745       C  0.68716351  0.70565479  0.15726206    -0.22340
C1746       C  0.67169325  0.72848567  0.12706704     0.20560
F1747       F  0.65763348  0.71022817  0.09546011    -0.12290
F1748       F  0.65740744  0.79070568  0.09757504    -0.14660
F1749       F  0.72285530  0.70885956  0.21279119    -0.14660
F1750       F  0.72083941  0.78753043  0.21631511    -0.12290
C1751       C  0.73623179  0.84430733  0.12312903     0.25720
C1752       C  0.72134861  0.85406437  0.15997201    -0.22390
C1753       C  0.74210945  0.87393404  0.18731430     0.20620
C1754       C  0.77561113  0.87364693  0.18289061     0.25660
C1755       C  0.79003688  0.85101068  0.15278340    -0.22340
C1756       C  0.77012926  0.84369229  0.11918361     0.20560
F1757       F  0.78233222  0.82833560  0.08530794    -0.12290
F1758       F  0.71811297  0.83120464  0.09208690    -0.14660
F1759       F  0.79380529  0.89308992  0.21032603    -0.14660
F1760       F  0.73139340  0.89525708  0.21793437    -0.12290
C1761       C  0.65934556  0.81370917  0.27631589     0.25720
C1762       C  0.67457008  0.84488774  0.29767655    -0.22390
C1763       C  0.67321030  0.88205520  0.27686133     0.20620
C1764       C  0.67262942  0.88253247  0.23417787     0.25660
C1765       C  0.67298752  0.84581487  0.21297079    -0.22340
C1766       C  0.65851009  0.81417316  0.23500469     0.20560
F1767       F  0.64265907  0.78382469  0.21714040    -0.12290
F1768       F  0.64447365  0.78284159  0.29498162    -0.14660
F1769       F  0.67406008  0.91804055  0.21426429    -0.14660
F1770       F  0.67444804  0.91713012  0.29704241    -0.12290
C1771       C  0.74174158  0.84432941  0.38311135     0.25720
C1772       C  0.72483518  0.85349235  0.34739290    -0.22390
C1773       C  0.74402484  0.87351148  0.31815136     0.20620
C1774       C  0.77761761  0.87132961  0.31847583     0.25660
C1775       C  0.79361566  0.84934208  0.34811990    -0.22340
C1776       C  0.77595677  0.84468694  0.38418512     0.20560
F1777       F  0.79053703  0.83128391  0.41765240    -0.12290
F1778       F  0.72536777  0.83082107  0.41568812    -0.14660
F1779       F  0.79426465  0.89034474  0.28898183    -0.14660
F1780       F  0.73182134  0.89841666  0.29098791    -0.12290
C1781       C  0.67055955  0.61315953  0.27090100     0.25720
C1782       C  0.67112011  0.64997708  0.29234778    -0.22390
C1783       C  0.65733235  0.68183634  0.27160267     0.20620
C1784       C  0.65690968  0.68232570  0.23019934     0.25660
C1785       C  0.67090873  0.65120444  0.20806191    -0.22340
C1786       C  0.66880124  0.61393249  0.22846837     0.20560
F1787       F  0.66744776  0.57903344  0.20796482    -0.12290
F1788       F  0.67614008  0.57792514  0.28963941    -0.14660
F1789       F  0.64176167  0.71270517  0.21215028    -0.14660
F1790       F  0.64337086  0.71194261  0.29101813    -0.12290
C1791       C  0.74102164  0.63108478  0.36906614     0.25720
C1792       C  0.72296142  0.63881882  0.33396073    -0.22390
C1793       C  0.74084883  0.63772977  0.29832385     0.20620
C1794       C  0.77398319  0.64091968  0.29812939     0.25660
C1795       C  0.79330998  0.63564786  0.33298431    -0.22340
C1796       C  0.77484124  0.62462138  0.36758913     0.20560
F1797       F  0.78870794  0.61097956  0.40117658    -0.12290
F1798       F  0.72659434  0.63213130  0.40534043    -0.14660
F1799       F  0.78509997  0.65635099  0.26330249    -0.14660
F1800       F  0.72758118  0.64460472  0.26248112    -0.12290
C1801       C  0.70943775  0.72801757  0.31716440     0.25720
C1802       C  0.69216605  0.70275769  0.34421449    -0.22390
C1803       C  0.67984073  0.72330512  0.37809157     0.20620
C1804       C  0.67895252  0.76617518  0.37952558     0.25660
C1805       C  0.69174721  0.79044636  0.34796641    -0.22340
C1806       C  0.70933412  0.76967058  0.31926700     0.20560
F1807       F  0.72446422  0.79047293  0.28994398    -0.12290
F1808       F  0.72586589  0.71327766  0.28636287    -0.14660
F1809       F  0.66640476  0.78330401  0.41243959    -0.14660
F1810       F  0.66930684  0.70254125  0.41056942    -0.12290
C1811       C  0.60991544  0.62633469  0.39249400     0.25720
C1812       C  0.61646258  0.58827347  0.40805671    -0.22390
C1813       C  0.64665542  0.57186158  0.40034698     0.20620
C1814       C  0.66965697  0.59280445  0.37725113     0.25660
C1815       C  0.66404883  0.63243556  0.36304322    -0.22340
C1816       C  0.63279574  0.64748099  0.36993317     0.20560
F1817       F  0.62363227  0.68302133  0.35456917    -0.12290
F1818       F  0.58099815  0.64353598  0.39887363    -0.14660
F1819       F  0.69596999  0.57208049  0.36638435    -0.14660
F1820       F  0.65332059  0.53421774  0.41294996    -0.12290
C1821       C  0.66905795  0.89780569  0.11926578     0.25720
C1822       C  0.66090602  0.86237074  0.14123702    -0.22390
C1823       C  0.62810455  0.84993556  0.14065955     0.20620
C1824       C  0.60521193  0.87013486  0.11832086     0.25660
C1825       C  0.61367220  0.90442814  0.09588224    -0.22340
C1826       C  0.64595695  0.91787943  0.09659747     0.20560
F1827       F  0.65527380  0.95150716  0.07638059    -0.12290
F1828       F  0.69882467  0.91506688  0.12069062    -0.14660
F1829       F  0.57453376  0.85531344  0.11860752    -0.14660
F1830       F  0.61766109  0.81710244  0.16091183    -0.12290
C1831       C  0.90762249  0.61247458  0.12232502     0.25720
C1832       C  0.89866735  0.58622112  0.09150665    -0.22390
C1833       C  0.86580137  0.58137203  0.08269093     0.20620
C1834       C  0.84251587  0.60241920  0.10366593     0.25660
C1835       C  0.85134865  0.63041483  0.13374212    -0.22340
C1836       C  0.88465127  0.63403516  0.14281357     0.20560
F1837       F  0.89568759  0.65945282  0.17130226    -0.12290
F1838       F  0.93889369  0.61768833  0.13322977    -0.14660
F1839       F  0.81154383  0.59436210  0.09362827    -0.14660
F1840       F  0.85577374  0.55608148  0.05354235    -0.12290
C1841       C  0.62858211  0.64610696  0.13499804     0.25720
C1842       C  0.66148381  0.63582343  0.13560984    -0.22390
C1843       C  0.67025438  0.60171551  0.11285638     0.20620
C1844       C  0.64735520  0.58002775  0.09080536     0.25660
C1845       C  0.61482335  0.59062250  0.09112335    -0.22340
C1846       C  0.60594229  0.62434914  0.11315579     0.20560
F1847       F  0.57500227  0.63681755  0.11395314    -0.12290
F1848       F  0.61766117  0.67776427  0.15551626    -0.14660
F1849       F  0.65714601  0.54750489  0.07031703    -0.14660
F1850       F  0.70043862  0.58702312  0.11282044    -0.12290
C1851       C  0.86291708  0.89311300  0.34861470     0.25720
C1852       C  0.85238539  0.85501233  0.36313030    -0.22390
C1853       C  0.86289955  0.84403566  0.40206719     0.20620
C1854       C  0.88575110  0.86710698  0.42240582     0.25660
C1855       C  0.89773492  0.90284723  0.40611702    -0.22340
C1856       C  0.88595090  0.91611407  0.36937653     0.20560
F1857       F  0.89690869  0.95128945  0.35345719    -0.12290
F1858       F  0.85143516  0.90823703  0.31401084    -0.14660
F1859       F  0.89649870  0.85417856  0.45829772    -0.14660
F1860       F  0.85097459  0.81130912  0.42162183    -0.12290
C1861       C  0.87321994  0.60715694  0.42623389     0.25720
C1862       C  0.89879093  0.58694946  0.40861869    -0.22390
C1863       C  0.90341453  0.59048169  0.36764801     0.20620
C1864       C  0.88282857  0.61292576  0.34429344     0.25660
C1865       C  0.85406488  0.62977579  0.36024412    -0.22340
C1866       C  0.85199982  0.62955598  0.40263447     0.20560
F1867       F  0.83201380  0.65474322  0.42183416    -0.12290
F1868       F  0.87022985  0.60778972  0.46650737    -0.14660
F1869       F  0.89446918  0.62157550  0.30744164    -0.14660
F1870       F  0.92922979  0.57350774  0.34995935    -0.12290
C1871       C  0.67203901  0.89456751  0.39047586     0.25720
C1872       C  0.66463358  0.85823882  0.37018982    -0.22390
C1873       C  0.63224023  0.84412282  0.37265969     0.20620
C1874       C  0.60871327  0.86499449  0.39318973     0.25660
C1875       C  0.61622866  0.90104116  0.41259501    -0.22340
C1876       C  0.64839658  0.91496712  0.41178209     0.20560
F1877       F  0.65702251  0.94955795  0.43023312    -0.12290
F1878       F  0.70152771  0.91252192  0.38836282    -0.14660
F1879       F  0.57829614  0.84933507  0.39396483    -0.14660
F1880       F  0.62260444  0.80957498  0.35536787    -0.12290
C1881       C  0.88574232  0.91547580  0.13103224     0.25720
C1882       C  0.89506471  0.90421995  0.09270247    -0.22390
C1883       C  0.87892021  0.87254657  0.07424138     0.20620
C1884       C  0.85546509  0.85015803  0.09468401     0.25660
C1885       C  0.84826556  0.85776058  0.13548713    -0.22340
C1886       C  0.86161401  0.89366077  0.15151293     0.20560
F1887       F  0.85192701  0.90777887  0.18721854    -0.12290
F1888       F  0.89981831  0.94786554  0.14851427    -0.14660
F1889       F  0.84085777  0.82022774  0.07405588    -0.14660
F1890       F  0.88649820  0.86250070  0.03634987    -0.12290
O1891       O  0.95242118  0.91627391  0.91911476    -0.73170
O1892       O  0.91450044  0.95066784  0.95377617    -0.52080
C1893       C  0.92315304  0.92513480  0.92743877     0.80560
O1894       O  0.55899342  0.91741715  0.58079913    -0.57770
O1895       O  0.59783459  0.95190611  0.54625180    -0.50800
C1896       C  0.58866163  0.92608789  0.57278472     0.72570
O1897       O  0.95033295  0.91693391  0.58128164    -0.72330
O1898       O  0.91333617  0.94990989  0.54355064    -0.52890
C1899       C  0.92126793  0.92536107  0.57135891     0.78570
O1900       O  0.56100346  0.91576481  0.92329144    -0.57470
O1901       O  0.59889979  0.95045273  0.95860885    -0.50590
C1902       C  0.59045915  0.92397451  0.93280947     0.75170
Zr1903     Zr  0.00646838  0.93577289  0.94104625     2.54710
O1904       O  0.00490950  0.86290422  0.94275708    -0.78040
O1905       O  0.50908949  0.93859976  0.86861072    -0.91460
Zr1906     Zr  0.00498582  0.93461599  0.55902803     2.64680
O1907       O  0.00346172  0.86193499  0.55376016    -0.96410
O1908       O  0.50510316  0.93189673  0.63149696    -0.78470
O1909       O  0.97413052  0.93388737  0.49959379    -0.81830
O1910       O  0.53708042  0.93464503  0.00054037    -2.16540
O1911       O  0.56163372  0.57353368  0.92138573    -0.65220
O1912       O  0.59938901  0.53904371  0.95603074    -0.49790
C1913       C  0.59097899  0.56531342  0.92995821     0.73550
O1914       O  0.95312134  0.57329778  0.57691334    -0.58130
O1915       O  0.91470648  0.53751003  0.54382897    -0.50110
C1916       C  0.92363588  0.56421154  0.56918187     0.75350
O1917       O  0.56043014  0.57350571  0.57849467    -0.69520
O1918       O  0.59873918  0.54062424  0.54387866    -0.48200
C1919       C  0.58989306  0.56655211  0.56972372     0.76740
O1920       O  0.95292403  0.57409454  0.92338728    -0.64850
O1921       O  0.91390629  0.53996228  0.95836187    -0.52050
C1922       C  0.92329573  0.56594187  0.93220944     0.75120
Zr1923     Zr  0.50719807  0.55411298  0.94139791     2.77540
O1924       O  0.00792059  0.62700384  0.94303424    -0.95600
O1925       O  0.00640828  0.55323370  0.86892268    -0.76420
Zr1926     Zr  0.50667207  0.55272807  0.55890119     2.70060
O1927       O  0.50782702  0.62559003  0.55947159    -0.77670
O1928       O  0.00535270  0.54830251  0.63130252    -0.96750
Zr1929     Zr  0.94402590  0.49402157  0.49953207     2.21500
Zr1930     Zr  0.56878499  0.99506010  0.00079793     2.11130
O1931       O  0.53833351  0.55487471  0.00034186    -2.45440
O1932       O  0.97550886  0.55431396  0.49997500    -0.77460
O1933       O  0.53839391  0.99532276  0.94057926    -0.69660
O1934       O  0.97449281  0.49368317  0.55965417    -2.30620
O1935       O  0.97543866  0.49468990  0.93991254    -2.26820
O1936       O  0.53743384  0.99386435  0.56039227    -0.71420
H1937       H  0.55062579  0.91146002  0.00086610     0.80580
H1938       H  0.96066933  0.49378383  0.58281445     0.81670
H1939       H  0.55222354  0.57838381  0.00040432     0.83890
H1940       H  0.96187045  0.49502843  0.91658325     0.81500
H1941       H  0.99553790  0.95747644  0.63974399     0.44530
H1942       H  0.52428087  0.53215967  0.63840208     0.43500
H1943       H  0.99914727  0.63340375  0.53315339     0.43180
H1944       H  0.52768225  0.63440507  0.95791377     0.41120
H1945       H  0.51960607  0.52998171  0.86172475     0.44250
H1946       H  0.99057934  0.95504288  0.86056112     0.39030
H1947       H  0.99019699  0.85596857  0.96510040     0.45150
H1948       H  0.52408667  0.85511249  0.54088137     0.41560
H1949       H  0.51253486  0.63533221  0.91521068     0.46480
H1950       H  0.50318795  0.91113721  0.86002127     0.45210
H1951       H  0.00565007  0.85226205  0.58155253     0.45340
H1952       H  0.51100439  0.57569946  0.64032010     0.45700
C1953       C  0.68757295  0.65578563  0.83441781    -0.00370
C1954       C  0.68870929  0.83768927  0.84139433    -0.00370
C1955       C  0.68518825  0.83974854  0.66827618    -0.00370
C1956       C  0.68495729  0.65843706  0.66420925    -0.00370
C1957       C  0.82943621  0.65384248  0.83392882    -0.00370
C1958       C  0.82658200  0.65463664  0.65823957    -0.00370
C1959       C  0.82378843  0.83081789  0.65937399    -0.00370
C1960       C  0.82720486  0.82902426  0.83998396    -0.00370
C1961       C  0.85965823  0.83598013  0.72728900     0.25720
C1962       C  0.83073377  0.82611390  0.70617221    -0.22390
C1963       C  0.80637978  0.80882151  0.73038299     0.20620
C1964       C  0.80800183  0.80694239  0.77127607     0.25660
C1965       C  0.83279712  0.82535630  0.79318224    -0.22340
C1966       C  0.86043099  0.83666007  0.77008854     0.20560
F1967       F  0.88868868  0.84600272  0.78821399    -0.12290
F1968       F  0.88753872  0.84329472  0.70725300    -0.14660
F1969       F  0.78266922  0.78926469  0.78948327    -0.14660
F1970       F  0.77830757  0.79617307  0.71547835    -0.12290
C1971       C  0.79959957  0.72196344  0.65916758     0.25720
C1972       C  0.82591378  0.69994973  0.64549449    -0.22390
C1973       C  0.85164847  0.72335485  0.62866905     0.20620
C1974       C  0.85221755  0.76544817  0.63411584     0.25660
C1975       C  0.82357579  0.78621036  0.64422162    -0.22340
C1976       C  0.79604765  0.76133276  0.64909360     0.20560
F1977       F  0.76566802  0.77434843  0.65085153    -0.12290
F1978       F  0.77775079  0.70607645  0.68493991    -0.14660
F1979       F  0.88111223  0.78486989  0.63130292    -0.14660
F1980       F  0.87792585  0.70674302  0.61228511    -0.12290
C1981       C  0.84134373  0.61761251  0.72514443     0.25720
C1982       C  0.83718665  0.65365293  0.70360251    -0.22390
C1983       C  0.84593806  0.68871641  0.72518146     0.20620
C1984       C  0.84650849  0.68930918  0.76623788     0.25660
C1985       C  0.84102454  0.65400765  0.78915384    -0.22340
C1986       C  0.84086264  0.61745949  0.76715440     0.20560
F1987       F  0.83746727  0.58168377  0.78632143    -0.12290
F1988       F  0.84403620  0.58224479  0.70578325    -0.14660
F1989       F  0.84939043  0.72640838  0.78129097    -0.14660
F1990       F  0.85515368  0.72373500  0.70785925    -0.12290
C1991       C  0.80039012  0.71889030  0.85721248     0.25720
C1992       C  0.82908311  0.69784985  0.85050237    -0.22390
C1993       C  0.85806017  0.72063049  0.85541733     0.20620
C1994       C  0.85754552  0.76289505  0.85422620     0.25660
C1995       C  0.82804631  0.78386887  0.85384352    -0.22340
C1996       C  0.79996892  0.75996646  0.85974578     0.20560
F1997       F  0.76999640  0.77444877  0.86050662    -0.12290
F1998       F  0.77086697  0.70192643  0.85754830    -0.14660
F1999       F  0.88601804  0.78293846  0.84938094    -0.14660
F2000       F  0.88708131  0.70287955  0.85264223    -0.12290
C2001       C  0.73884389  0.61913563  0.68315845     0.25720
C2002       C  0.72106183  0.64458917  0.65766212    -0.22390
C2003       C  0.73814645  0.65753985  0.62300770     0.20620
C2004       C  0.77175119  0.65327402  0.61950295     0.25660
C2005       C  0.79047886  0.63831879  0.65180126    -0.22340
C2006       C  0.77240447  0.61662280  0.68071471     0.20560
F2007       F  0.78580709  0.58914886  0.70474534    -0.12290
F2008       F  0.72486814  0.59252104  0.70819606    -0.14660
F2009       F  0.78651154  0.66907021  0.58666727    -0.14660
F2010       F  0.72246650  0.67586545  0.59271810    -0.12290
C2011       C  0.67147278  0.77118454  0.62829322     0.25720
C2012       C  0.68648226  0.79279600  0.65996461    -0.22390
C2013       C  0.70501929  0.76959279  0.68618967     0.20620
C2014       C  0.70588692  0.72798819  0.68445051     0.25660
C2015       C  0.68716354  0.70565479  0.65726208    -0.22340
C2016       C  0.67169330  0.72848567  0.62706705     0.20560
F2017       F  0.65763354  0.71022817  0.59546011    -0.12290
F2018       F  0.65740752  0.79070569  0.59757502    -0.14660
F2019       F  0.72285532  0.70885955  0.71279123    -0.14660
F2020       F  0.72083949  0.78753045  0.71631510    -0.12290
C2021       C  0.73623183  0.84430742  0.62312905     0.25720
C2022       C  0.72134865  0.85406437  0.65997205    -0.22390
C2023       C  0.74210949  0.87393392  0.68731442     0.20620
C2024       C  0.77561117  0.87364678  0.68289074     0.25660
C2025       C  0.79003691  0.85101063  0.65278346    -0.22340
C2026       C  0.77012930  0.84369240  0.61918363     0.20560
F2027       F  0.78233228  0.82833586  0.58530790    -0.12290
F2028       F  0.71811301  0.83120481  0.59208688    -0.14660
F2029       F  0.79380533  0.89308971  0.71032620    -0.14660
F2030       F  0.73139344  0.89525686  0.71793456    -0.12290
C2031       C  0.65934558  0.81370917  0.77631588     0.25720
C2032       C  0.67457008  0.84488775  0.79767655    -0.22390
C2033       C  0.67321030  0.88205521  0.77686132     0.20620
C2034       C  0.67262942  0.88253247  0.73417786     0.25660
C2035       C  0.67298754  0.84581487  0.71297079    -0.22340
C2036       C  0.65851011  0.81417315  0.73500468     0.20560
F2037       F  0.64265908  0.78382471  0.71714038    -0.12290
F2038       F  0.64447368  0.78284158  0.79498161    -0.14660
F2039       F  0.67406012  0.91804055  0.71426427    -0.14660
F2040       F  0.67444800  0.91713013  0.79704239    -0.12290
C2041       C  0.74174158  0.84432948  0.88311136     0.25720
C2042       C  0.72483516  0.85349240  0.84739291    -0.22390
C2043       C  0.74402481  0.87351151  0.81815135     0.20620
C2044       C  0.77761758  0.87132954  0.81847575     0.25660
C2045       C  0.79361564  0.84934205  0.84811985    -0.22340
C2046       C  0.77595677  0.84468699  0.88418509     0.20560
F2047       F  0.79053706  0.83128402  0.91765237    -0.12290
F2048       F  0.72536778  0.83082118  0.91568815    -0.14660
F2049       F  0.79426460  0.89034464  0.78898173    -0.14660
F2050       F  0.73182132  0.89841683  0.79098803    -0.12290
C2051       C  0.67055954  0.61315955  0.77090103     0.25720
C2052       C  0.67112010  0.64997711  0.79234780    -0.22390
C2053       C  0.65733235  0.68183636  0.77160268     0.20620
C2054       C  0.65690969  0.68232571  0.73019935     0.25660
C2055       C  0.67090873  0.65120445  0.70806193    -0.22340
C2056       C  0.66880124  0.61393250  0.72846840     0.20560
F2057       F  0.66744777  0.57903345  0.70796485    -0.12290
F2058       F  0.67614007  0.57792516  0.78963944    -0.14660
F2059       F  0.64176168  0.71270518  0.71215028    -0.14660
F2060       F  0.64337084  0.71194262  0.79101813    -0.12290
C2061       C  0.74102162  0.63108478  0.86906615     0.25720
C2062       C  0.72296141  0.63881884  0.83396074    -0.22390
C2063       C  0.74084881  0.63772980  0.79832386     0.20620
C2064       C  0.77398317  0.64091969  0.79812939     0.25660
C2065       C  0.79330996  0.63564788  0.83298431    -0.22340
C2066       C  0.77484122  0.62462137  0.86758913     0.20560
F2067       F  0.78870793  0.61097952  0.90117656    -0.12290
F2068       F  0.72659433  0.63213128  0.90534044    -0.14660
F2069       F  0.78509994  0.65635096  0.76330247    -0.14660
F2070       F  0.72758116  0.64460477  0.76248114    -0.12290
C2071       C  0.70943777  0.72801760  0.81716442     0.25720
C2072       C  0.69216605  0.70275773  0.84421450    -0.22390
C2073       C  0.67984073  0.72330516  0.87809158     0.20620
C2074       C  0.67895253  0.76617521  0.87952559     0.25660
C2075       C  0.69174723  0.79044640  0.84796643    -0.22340
C2076       C  0.70933416  0.76967062  0.81926703     0.20560
F2077       F  0.72446429  0.79047297  0.78994403    -0.12290
F2078       F  0.72586592  0.71327769  0.78636290    -0.14660
F2079       F  0.66640478  0.78330404  0.91243961    -0.14660
F2080       F  0.66930685  0.70254129  0.91056943    -0.12290
C2081       C  0.60991543  0.62633474  0.89249402     0.25720
C2082       C  0.61646256  0.58827351  0.90805672    -0.22390
C2083       C  0.64665540  0.57186162  0.90034698     0.20620
C2084       C  0.66965696  0.59280448  0.87725114     0.25660
C2085       C  0.66404882  0.63243560  0.86304324    -0.22340
C2086       C  0.63279573  0.64748104  0.86993320     0.20560
F2087       F  0.62363227  0.68302138  0.85456920    -0.12290
F2088       F  0.58099815  0.64353603  0.89887366    -0.14660
F2089       F  0.69596996  0.57208052  0.86638434    -0.14660
F2090       F  0.65332057  0.53421776  0.91294995    -0.12290
C2091       C  0.66905800  0.89780577  0.61926587     0.25720
C2092       C  0.66090607  0.86237077  0.64123704    -0.22390
C2093       C  0.62810460  0.84993559  0.64065952     0.20620
C2094       C  0.60521198  0.87013495  0.61832087     0.25660
C2095       C  0.61367225  0.90442827  0.59588233    -0.22340
C2096       C  0.64595700  0.91787957  0.59659760     0.20560
F2097       F  0.65527388  0.95150731  0.57638075    -0.12290
F2098       F  0.69882473  0.91506694  0.62069073    -0.14660
F2099       F  0.57453381  0.85531350  0.61860744    -0.14660
F2100       F  0.61766114  0.81710240  0.66091170    -0.12290
C2101       C  0.90762250  0.61247452  0.62232501     0.25720
C2102       C  0.89866736  0.58622112  0.59150659    -0.22390
C2103       C  0.86580139  0.58137204  0.58269085     0.20620
C2104       C  0.84251588  0.60241919  0.60366587     0.25660
C2105       C  0.85134866  0.63041478  0.63374209    -0.22340
C2106       C  0.88465127  0.63403508  0.64281358     0.20560
F2107       F  0.89568759  0.65945266  0.67130233    -0.12290
F2108       F  0.93889370  0.61768822  0.63322979    -0.14660
F2109       F  0.81154385  0.59436206  0.59362821    -0.14660
F2110       F  0.85577377  0.55608151  0.55354225    -0.12290
C2111       C  0.62858212  0.64610699  0.63499803     0.25720
C2112       C  0.66148382  0.63582343  0.63560986    -0.22390
C2113       C  0.67025438  0.60171549  0.61285643     0.20620
C2114       C  0.64735521  0.58002773  0.59080541     0.25660
C2115       C  0.61482336  0.59062251  0.59112336    -0.22340
C2116       C  0.60594231  0.62434916  0.61315578     0.20560
F2117       F  0.57500229  0.63681760  0.61395310    -0.12290
F2118       F  0.61766119  0.67776432  0.65551623    -0.14660
F2119       F  0.65714600  0.54750485  0.57031711    -0.14660
F2120       F  0.70043861  0.58702306  0.61282053    -0.12290
C2121       C  0.86291696  0.89311310  0.84861474     0.25720
C2122       C  0.85238536  0.85501236  0.86313029    -0.22390
C2123       C  0.86289960  0.84403566  0.90206714     0.20620
C2124       C  0.88575115  0.86710699  0.92240575     0.25660
C2125       C  0.89773489  0.90284730  0.90611699    -0.22340
C2126       C  0.88595078  0.91611420  0.86937657     0.20560
F2127       F  0.89690846  0.95128964  0.85345726    -0.12290
F2128       F  0.85143496  0.90823714  0.81401093    -0.14660
F2129       F  0.89649882  0.85417855  0.95829761    -0.14660
F2130       F  0.85097469  0.81130909  0.92162178    -0.12290
C2131       C  0.87321993  0.60715688  0.92623385     0.25720
C2132       C  0.89879091  0.58694943  0.90861865    -0.22390
C2133       C  0.90341452  0.59048169  0.86764796     0.20620
C2134       C  0.88282856  0.61292579  0.84429341     0.25660
C2135       C  0.85406486  0.62977579  0.86024409    -0.22340
C2136       C  0.85199980  0.62955594  0.90263444     0.20560
F2137       F  0.83201378  0.65474317  0.92183415    -0.12290
F2138       F  0.87022984  0.60778965  0.96650733    -0.14660
F2139       F  0.89446919  0.62157561  0.80744162    -0.14660
F2140       F  0.92922980  0.57350779  0.84995929    -0.12290
C2141       C  0.67203895  0.89456751  0.89047589     0.25720
C2142       C  0.66463355  0.85823881  0.87018983    -0.22390
C2143       C  0.63224021  0.84412276  0.87265973     0.20620
C2144       C  0.60871325  0.86499436  0.89318985     0.25660
C2145       C  0.61622861  0.90104102  0.91259516    -0.22340
C2146       C  0.64839651  0.91496706  0.91178218     0.20560
F2147       F  0.65702239  0.94955793  0.93023315    -0.12290
F2148       F  0.70152761  0.91252202  0.88836273    -0.14660
F2149       F  0.57829613  0.84933491  0.89396494    -0.14660
F2150       F  0.62260444  0.80957496  0.85536783    -0.12290
C2151       C  0.88574225  0.91547580  0.63103201     0.25720
C2152       C  0.89506473  0.90421983  0.59270231    -0.22390
C2153       C  0.87892031  0.87254633  0.57424131     0.20620
C2154       C  0.85546516  0.85015784  0.59468395     0.25660
C2155       C  0.84826557  0.85776052  0.63548704    -0.22340
C2156       C  0.86161395  0.89366079  0.65151274     0.20560
F2157       F  0.85192690  0.90777897  0.68721828    -0.12290
F2158       F  0.89981817  0.94786565  0.64851395    -0.14660
F2159       F  0.84085784  0.82022753  0.57405585    -0.14660
F2160       F  0.88649839  0.86250032  0.53634987    -0.12290
loop_ 
_geom_bond_atom_site_label_1 
_geom_bond_atom_site_label_2 
_geom_bond_distance 
_geom_bond_site_symmetry_2 
_ccdc_geom_bond_type 
O1          Zr13   2.442       .  S
O1            C3   1.287       .  A
O2         Zr849   2.436       .  S
O2            C3   1.288       .  A
C3          C235   1.471       .  S
O4        Zr1096   2.438       .  S
O4            C6   1.288       .  A
O5         Zr310   2.430       .  S
O5            C6   1.288       .  A
C6          C205   1.492       .  S
O7          Zr16   2.449       .  S
O7            C9   1.289       .  A
O8         Zr579   2.423   1_554  S
O8            C9   1.286       .  A
C9          C262   1.469       .  S
O10       Zr1093   2.448       .  S
O10          C12   1.290       .  A
O11         Zr40   2.426       .  S
O11          C12   1.287       .  A
C12         C255   1.493       .  S
Zr13       O1090   2.448       .  S
Zr13         O14   2.434       .  S
Zr13       O1095   2.435       .  S
Zr13        O289   2.378       .  S
Zr13       O1100   2.370       .  S
Zr13       O1123   2.370       .  S
Zr13        O585   2.373       .  S
O14          H57   0.990       .  S
O15       Zr1093   2.435       .  S
O15          H60   0.990       .  S
O15        H1136   0.990   1_455  S
Zr16       O1084   2.438       .  S
Zr16         O17   2.435       .  S
Zr16       O1098   2.434       .  S
Zr16         O19   2.374   1_554  S
Zr16       O1370   2.371       .  S
Zr16        O584   2.365       .  S
Zr16       O1126   2.374       .  S
O17          H61   0.990       .  S
O17        H1138   0.990       .  S
O18       Zr1096   2.434       .  S
O18        H1131   0.990   1_455  S
O19        Zr283   2.378       .  S
O19        Zr579   2.386       .  S
O20         Zr40   2.389       .  S
O20       Zr1093   2.370       .  S
O20       Zr1366   2.371       .  S
O20          H47   0.966       .  S
O21         Zr33   2.433       .  S
O21          C23   1.287       .  A
O22        Zr580   2.434   1_545  S
O22          C23   1.288       .  A
C23         C192   1.486       .  S
O24       Zr1116   2.417       .  S
O24          C26   1.284       .  A
O25         Zr39   2.428   1_544  S
O25          C26   1.287       .  A
C26         C212   1.487       .  S
O27         Zr36   2.420       .  S
O27          C29   1.284       .  A
O28        Zr850   2.434   1_545  S
O28          C29   1.288       .  A
C29         C225   1.488       .  S
O30       Zr1113   2.439       .  S
O30          C32   1.289       .  A
O31        Zr309   2.425   1_545  S
O31          C32   1.285       .  A
C32         C242   1.476       .  S
Zr33       O1110   2.439   1_455  S
Zr33       O1114   2.436       .  S
Zr33       O1115   2.434       .  S
Zr33         O41   2.366       .  S
Zr33       O1392   2.365   1_455  S
Zr33       O1125   2.364   1_445  S
Zr33        O583   2.373   1_545  S
O34       Zr1113   2.436       .  S
O34        H1134   0.990       .  S
O34        H1139   0.990       .  S
O35       Zr1113   2.434       .  S
O35        H1135   0.990       .  S
Zr36       O1104   2.417   1_455  S
Zr36         O37   2.434       .  S
Zr36       O1118   2.435       .  S
Zr36       O1122   2.367   1_454  S
Zr36        O311   2.363       .  S
Zr36        O586   2.365   1_545  S
Zr36       O1124   2.362   1_445  S
O37        H1133   0.990   1_455  S
O38       Zr1116   2.435       .  S
O38        H1132   0.990       .  S
O38        H1142   0.990       .  S
Zr39        O812   2.436       .  S
Zr39        O548   2.423   1_556  S
Zr39        O301   2.425   1_565  S
Zr39         O42   2.381   1_565  S
Zr39         O44   2.385   1_556  S
Zr39        O559   2.386       .  S
Zr39        O315   2.387       .  S
Zr40        O275   2.430       .  S
Zr40        O562   2.434       .  S
Zr40        O838   2.434       .  S
Zr40         O43   2.385       .  S
Zr40        O581   2.385       .  S
Zr40        O316   2.385       .  S
O41        Zr306   2.363       .  S
O41        Zr580   2.385   1_545  S
O41          H49   0.966       .  S
O42       Zr1383   2.365       .  S
O42       Zr1116   2.367   1_556  S
O43       Zr1093   2.370       .  S
O43        Zr573   2.373       .  S
O44        Zr556   2.365       .  S
O44       Zr1116   2.362   1_565  S
O44          H48   0.966       .  S
O45        Zr553   2.373       .  S
O45       Zr1113   2.364   1_565  S
O45        Zr309   2.387       .  S
O45          H50   0.966       .  S
O46       Zr1096   2.374       .  S
O46        Zr576   2.365       .  S
O46        Zr310   2.385       .  S
H51        O1098   0.990       .  S
H52        O1118   0.990       .  S
H53        O1117   0.990       .  S
H54        O1114   0.990       .  S
H55        O1115   0.990       .  S
H56        O1095   0.990       .  S
H58        O1097   0.990       .  S
H59        O1114   0.990       .  S
H62        O1118   0.990       .  S
C63         C162   1.582       .  S
C63         C172   1.585       .  S
C63         C182   1.613       .  S
C63         C195   1.563       .  S
C64         C142   1.600       .  S
C64         C152   1.595       .  S
C64         C185   1.599       .  S
C64         C252   1.561       .  S
C65         C122   1.597       .  S
C65         C132   1.591       .  S
C65         C145   1.598       .  S
C65         C202   1.560       .  S
C66         C112   1.593       .  S
C66         C125   1.594       .  S
C66         C165   1.598       .  S
C66         C222   1.559       .  S
C67          C95   1.577       .  S
C67         C102   1.576       .  S
C67         C175   1.609       .  S
C67         C245   1.580       .  S
C68          C82   1.571       .  S
C68          C92   1.586       .  S
C68         C115   1.602       .  S
C68         C215   1.558       .  S
C69          C72   1.605       .  S
C69          C85   1.578       .  S
C69         C135   1.582       .  S
C69         C265   1.562       .  S
C70          C75   1.594       .  S
C70         C105   1.576       .  S
C70         C155   1.587       .  S
C70         C232   1.559       .  S
C71          C72   1.431       .  A
C71          C76   1.438       .  A
C71          F78   1.356       .  S
C72          C73   1.409       .  A
C73          C74   1.376       .  A
C73          F80   1.332       .  S
C74          C75   1.402       .  A
C74          F79   1.341       .  S
C75          C76   1.427       .  A
C76          F77   1.355       .  S
C81          C82   1.407       .  A
C81          C86   1.366       .  A
C81          F88   1.352       .  S
C82          C83   1.426       .  A
C83          C84   1.419       .  A
C83          F90   1.351       .  S
C84          C85   1.430       .  A
C84          F89   1.357       .  S
C85          C86   1.410       .  A
C86          F87   1.344       .  S
C91          C92   1.414       .  A
C91          C96   1.410       .  A
C91          F98   1.359       .  S
C92          C93   1.423       .  A
C93          C94   1.379       .  A
C93         F100   1.351       .  S
C94          C95   1.418       .  A
C94          F99   1.345       .  S
C95          C96   1.431       .  A
C96          F97   1.358       .  S
C101        C102   1.413       .  A
C101        C106   1.376       .  A
C101        F108   1.341       .  S
C102        C103   1.422       .  A
C103        C104   1.413       .  A
C103        F110   1.357       .  S
C104        C105   1.423       .  A
C104        F109   1.357       .  S
C105        C106   1.414       .  A
C106        F107   1.344       .  S
C111        C112   1.420       .  A
C111        C116   1.400       .  A
C111        F118   1.343       .  S
C112        C113   1.422       .  A
C113        C114   1.411       .  A
C113        F120   1.357       .  S
C114        C115   1.428       .  A
C114        F119   1.359       .  S
C115        C116   1.414       .  A
C116        F117   1.347       .  S
C121        C122   1.427       .  A
C121        C126   1.427       .  A
C121        F128   1.355       .  S
C122        C123   1.409       .  A
C123        C124   1.393       .  A
C123        F130   1.345       .  S
C124        C125   1.409       .  A
C124        F129   1.349       .  S
C125        C126   1.425       .  A
C126        F127   1.355       .  S
C131        C132   1.424       .  A
C131        C136   1.415       .  A
C131        F138   1.357       .  S
C132        C133   1.420       .  A
C133        C134   1.399       .  A
C133        F140   1.335       .  S
C134        C135   1.406       .  A
C134        F139   1.354       .  S
C135        C136   1.420       .  A
C136        F137   1.352       .  S
C141        C142   1.409       .  A
C141        C146   1.387       .  A
C141        F148   1.343       .  S
C142        C143   1.422       .  A
C143        C144   1.433       .  A
C143        F150   1.358       .  S
C144        C145   1.423       .  A
C144        F149   1.358       .  S
C145        C146   1.411       .  A
C146        F147   1.344       .  S
C151        C152   1.425       .  A
C151        C156   1.422       .  A
C151        F158   1.357       .  S
C152        C153   1.419       .  A
C153        C154   1.399       .  A
C153        F160   1.337       .  S
C154        C155   1.408       .  A
C154        F159   1.354       .  S
C155        C156   1.421       .  A
C156        F157   1.355       .  S
C161        C162   1.429       .  A
C161        C166   1.427       .  A
C161        F168   1.355       .  S
C162        C163   1.400       .  A
C163        C164   1.390       .  A
C163        F170   1.342       .  S
C164        C165   1.415       .  A
C164        F169   1.345       .  S
C165        C166   1.418       .  A
C166        F167   1.358       .  S
C171        C172   1.423       .  A
C171        C176   1.426       .  A
C171        F178   1.357       .  S
C172        C173   1.408       .  A
C173        C174   1.378       .  A
C173        F180   1.345       .  S
C174        C175   1.432       .  A
C174        F179   1.352       .  S
C175        C176   1.433       .  A
C176        F177   1.348       .  S
C181        C182   1.420       .  A
C181        C186   1.394       .  A
C181        F188   1.340       .  S
C182        C183   1.431       .  A
C183        C184   1.434       .  A
C183        F190   1.356       .  S
C184        C185   1.426       .  A
C184        F189   1.356       .  S
C185        C186   1.403       .  A
C186        F187   1.349       .  S
C191        C192   1.403       .  A
C191        C196   1.393       .  A
C191        F198   1.358       .  S
C192        C193   1.402       .  A
C193        C194   1.403       .  A
C193        F200   1.357       .  S
C194        C195   1.427       .  A
C194        F199   1.355       .  S
C195        C196   1.420       .  A
C196        F197   1.353       .  S
C201        C202   1.425       .  A
C201        C206   1.403       .  A
C201        F208   1.356       .  S
C202        C203   1.417       .  A
C203        C204   1.393       .  A
C203        F210   1.351       .  S
C204        C205   1.405       .  A
C204        F209   1.358       .  S
C205        C206   1.407       .  A
C206        F207   1.358       .  S
C211        C212   1.407       .  A
C211        C216   1.390       .  A
C211        F218   1.359       .  S
C212        C213   1.404       .  A
C213        C214   1.398       .  A
C213        F220   1.358       .  S
C214        C215   1.425       .  A
C214        F219   1.353       .  S
C215        C216   1.420       .  A
C216        F217   1.358       .  S
C221        C222   1.416       .  A
C221        C226   1.391       .  A
C221        F228   1.351       .  S
C222        C223   1.429       .  A
C223        C224   1.401       .  A
C223        F230   1.355       .  S
C224        C225   1.403       .  A
C224        F229   1.358       .  S
C225        C226   1.407       .  A
C226        F227   1.359       .  S
C231        C232   1.421       .  A
C231        C236   1.405       .  A
C231        F238   1.355       .  S
C232        C233   1.427       .  A
C233        C234   1.394       .  A
C233        F240   1.356       .  S
C234        C235   1.393       .  A
C234        F239   1.356       .  S
C235        C236   1.400       .  A
C236        F237   1.358       .  S
C241        C242   1.401       .  A
C241        C246   1.408       .  A
C241        F248   1.358       .  S
C242        C243   1.392       .  A
C243        C244   1.388       .  A
C243        F250   1.360       .  S
C244        C245   1.435       .  A
C244        F249   1.355       .  S
C245        C246   1.426       .  A
C246        F247   1.358       .  S
C251        C252   1.425       .  A
C251        C256   1.403       .  A
C251        F258   1.355       .  S
C252        C253   1.420       .  A
C253        C254   1.395       .  A
C253        F260   1.350       .  S
C254        C255   1.403       .  A
C254        F259   1.359       .  S
C255        C256   1.407       .  A
C256        F257   1.357       .  S
C261        C262   1.399       .  A
C261        C266   1.404       .  A
C261        F268   1.358       .  S
C262        C263   1.392       .  A
C263        C264   1.394       .  A
C263        F270   1.356       .  S
C264        C265   1.427       .  A
C264        F269   1.355       .  S
C265        C266   1.421       .  A
C266        F267   1.354       .  S
O271       Zr283   2.442       .  S
O271        C273   1.287       .  A
O272       Zr579   2.436       .  S
O272        C273   1.288       .  A
C273        C505   1.471       .  S
O274      Zr1366   2.438       .  S
O274        C276   1.288       .  A
O275        C276   1.288       .  A
C276        C475   1.492       .  S
O277       Zr286   2.449       .  S
O277        C279   1.289       .  A
O278       Zr849   2.423       .  S
O278        C279   1.286       .  A
C279        C532   1.469       .  S
O280      Zr1363   2.448       .  S
O280        C282   1.290       .  A
O281       Zr310   2.426   1_556  S
O281        C282   1.287       .  A
C282        C525   1.493       .  S
Zr283      O1360   2.448       .  S
Zr283       O284   2.434       .  S
Zr283      O1365   2.435       .  S
Zr283      O1370   2.370   1_556  S
Zr283      O1393   2.370       .  S
Zr283       O855   2.373       .  S
O284        H327   0.990       .  S
O285      Zr1363   2.435       .  S
O285       H1406   0.990   1_455  S
O285        H330   0.990       .  S
Zr286      O1354   2.438       .  S
Zr286       O287   2.435       .  S
Zr286      O1368   2.434       .  S
Zr286      O1100   2.371       .  S
Zr286       O289   2.374       .  S
Zr286       O854   2.365       .  S
Zr286      O1396   2.374       .  S
O287       H1408   0.990       .  S
O287        H331   0.990       .  S
O288      Zr1366   2.434       .  S
O288       H1401   0.990   1_455  S
O289       Zr849   2.386       .  S
O290      Zr1363   2.370   1_554  S
O290      Zr1096   2.371       .  S
O290       Zr310   2.389       .  S
O290        H317   0.966       .  S
O291       Zr303   2.433       .  S
O291        C293   1.287       .  A
O292       Zr850   2.434   1_546  S
O292        C293   1.288       .  A
C293        C462   1.486       .  S
O294      Zr1386   2.417       .  S
O294        C296   1.284       .  A
O295       Zr309   2.428   1_545  S
O295        C296   1.287       .  A
C296        C482   1.487       .  S
O297       Zr306   2.420       .  S
O297        C299   1.284       .  A
O298       Zr580   2.434   1_545  S
O298        C299   1.288       .  A
C299        C495   1.488       .  S
O300      Zr1383   2.439       .  S
O300        C302   1.289       .  A
O301        C302   1.285       .  A
C302        C512   1.476       .  S
Zr303      O1380   2.439   1_455  S
Zr303      O1384   2.436       .  S
Zr303      O1385   2.434       .  S
Zr303       O311   2.366   1_556  S
Zr303      O1122   2.365   1_455  S
Zr303      O1395   2.364   1_445  S
Zr303       O853   2.373   1_545  S
O304      Zr1383   2.436       .  S
O304       H1404   0.990       .  S
O304       H1409   0.990       .  S
O305      Zr1383   2.434       .  S
O305       H1405   0.990       .  S
Zr306      O1374   2.417   1_455  S
Zr306       O307   2.434       .  S
Zr306      O1388   2.435       .  S
Zr306      O1392   2.367   1_455  S
Zr306       O856   2.365   1_545  S
Zr306      O1394   2.362   1_445  S
O307       H1403   0.990   1_455  S
O308      Zr1386   2.435       .  S
O308       H1402   0.990       .  S
O308       H1412   0.990       .  S
Zr309       O542   2.436       .  S
Zr309       O818   2.423       .  S
Zr309       O829   2.386       .  S
Zr309       O312   2.381   1_565  S
Zr309       O314   2.384       .  S
Zr310       O832   2.434   1_554  S
Zr310       O568   2.434       .  S
Zr310       O851   2.385       .  S
Zr310       O313   2.385   1_554  S
O311       Zr850   2.385   1_545  S
O311        H319   0.966       .  S
O312      Zr1113   2.365       .  S
O312      Zr1386   2.367       .  S
O313      Zr1363   2.370       .  S
O313       Zr843   2.373       .  S
O314       Zr826   2.365       .  S
O314      Zr1386   2.362   1_565  S
O314        H318   0.966       .  S
O315       Zr823   2.373       .  S
O315      Zr1383   2.364   1_565  S
O315        H320   0.966       .  S
O316      Zr1366   2.374       .  S
O316       Zr846   2.365       .  S
H321       O1368   0.990       .  S
H322       O1388   0.990       .  S
H323       O1387   0.990       .  S
H324       O1384   0.990       .  S
H325       O1385   0.990       .  S
H326       O1365   0.990       .  S
H328       O1367   0.990       .  S
H329       O1384   0.990       .  S
H332       O1388   0.990       .  S
C333        C432   1.582       .  S
C333        C442   1.585       .  S
C333        C452   1.613       .  S
C333        C465   1.563       .  S
C334        C412   1.600       .  S
C334        C422   1.595       .  S
C334        C455   1.599       .  S
C334        C522   1.561       .  S
C335        C392   1.597       .  S
C335        C402   1.591       .  S
C335        C415   1.598       .  S
C335        C472   1.560       .  S
C336        C382   1.593       .  S
C336        C395   1.594       .  S
C336        C435   1.598       .  S
C336        C492   1.559       .  S
C337        C365   1.577       .  S
C337        C372   1.576       .  S
C337        C445   1.609       .  S
C337        C515   1.580       .  S
C338        C352   1.571       .  S
C338        C362   1.586       .  S
C338        C385   1.602       .  S
C338        C485   1.558       .  S
C339        C342   1.605       .  S
C339        C355   1.578       .  S
C339        C405   1.582       .  S
C339        C535   1.562       .  S
C340        C345   1.594       .  S
C340        C375   1.576       .  S
C340        C425   1.587       .  S
C340        C502   1.559       .  S
C341        C342   1.431       .  A
C341        C346   1.438       .  A
C341        F348   1.356       .  S
C342        C343   1.409       .  A
C343        C344   1.376       .  A
C343        F350   1.332       .  S
C344        C345   1.402       .  A
C344        F349   1.341       .  S
C345        C346   1.427       .  A
C346        F347   1.355       .  S
C351        C352   1.407       .  A
C351        C356   1.366       .  A
C351        F358   1.352       .  S
C352        C353   1.426       .  A
C353        C354   1.419       .  A
C353        F360   1.351       .  S
C354        C355   1.430       .  A
C354        F359   1.357       .  S
C355        C356   1.410       .  A
C356        F357   1.344       .  S
C361        C362   1.414       .  A
C361        C366   1.410       .  A
C361        F368   1.359       .  S
C362        C363   1.423       .  A
C363        C364   1.379       .  A
C363        F370   1.351       .  S
C364        C365   1.418       .  A
C364        F369   1.345       .  S
C365        C366   1.431       .  A
C366        F367   1.358       .  S
C371        C372   1.413       .  A
C371        C376   1.376       .  A
C371        F378   1.341       .  S
C372        C373   1.422       .  A
C373        C374   1.413       .  A
C373        F380   1.357       .  S
C374        C375   1.423       .  A
C374        F379   1.357       .  S
C375        C376   1.414       .  A
C376        F377   1.344       .  S
C381        C382   1.420       .  A
C381        C386   1.400       .  A
C381        F388   1.343       .  S
C382        C383   1.422       .  A
C383        C384   1.411       .  A
C383        F390   1.357       .  S
C384        C385   1.428       .  A
C384        F389   1.359       .  S
C385        C386   1.414       .  A
C386        F387   1.347       .  S
C391        C392   1.427       .  A
C391        C396   1.427       .  A
C391        F398   1.355       .  S
C392        C393   1.409       .  A
C393        C394   1.393       .  A
C393        F400   1.345       .  S
C394        C395   1.409       .  A
C394        F399   1.349       .  S
C395        C396   1.425       .  A
C396        F397   1.355       .  S
C401        C402   1.424       .  A
C401        C406   1.415       .  A
C401        F408   1.357       .  S
C402        C403   1.420       .  A
C403        C404   1.399       .  A
C403        F410   1.335       .  S
C404        C405   1.406       .  A
C404        F409   1.354       .  S
C405        C406   1.420       .  A
C406        F407   1.352       .  S
C411        C412   1.409       .  A
C411        C416   1.387       .  A
C411        F418   1.343       .  S
C412        C413   1.422       .  A
C413        C414   1.433       .  A
C413        F420   1.358       .  S
C414        C415   1.423       .  A
C414        F419   1.358       .  S
C415        C416   1.411       .  A
C416        F417   1.344       .  S
C421        C422   1.425       .  A
C421        C426   1.422       .  A
C421        F428   1.357       .  S
C422        C423   1.419       .  A
C423        C424   1.399       .  A
C423        F430   1.337       .  S
C424        C425   1.408       .  A
C424        F429   1.354       .  S
C425        C426   1.421       .  A
C426        F427   1.355       .  S
C431        C432   1.429       .  A
C431        C436   1.427       .  A
C431        F438   1.355       .  S
C432        C433   1.400       .  A
C433        C434   1.390       .  A
C433        F440   1.342       .  S
C434        C435   1.415       .  A
C434        F439   1.345       .  S
C435        C436   1.418       .  A
C436        F437   1.358       .  S
C441        C442   1.423       .  A
C441        C446   1.426       .  A
C441        F448   1.357       .  S
C442        C443   1.408       .  A
C443        C444   1.378       .  A
C443        F450   1.345       .  S
C444        C445   1.432       .  A
C444        F449   1.352       .  S
C445        C446   1.433       .  A
C446        F447   1.348       .  S
C451        C452   1.420       .  A
C451        C456   1.394       .  A
C451        F458   1.340       .  S
C452        C453   1.431       .  A
C453        C454   1.434       .  A
C453        F460   1.356       .  S
C454        C455   1.426       .  A
C454        F459   1.356       .  S
C455        C456   1.403       .  A
C456        F457   1.349       .  S
C461        C462   1.403       .  A
C461        C466   1.393       .  A
C461        F468   1.358       .  S
C462        C463   1.402       .  A
C463        C464   1.403       .  A
C463        F470   1.357       .  S
C464        C465   1.427       .  A
C464        F469   1.355       .  S
C465        C466   1.420       .  A
C466        F467   1.353       .  S
C471        C472   1.425       .  A
C471        C476   1.403       .  A
C471        F478   1.356       .  S
C472        C473   1.417       .  A
C473        C474   1.393       .  A
C473        F480   1.351       .  S
C474        C475   1.405       .  A
C474        F479   1.358       .  S
C475        C476   1.407       .  A
C476        F477   1.358       .  S
C481        C482   1.407       .  A
C481        C486   1.390       .  A
C481        F488   1.359       .  S
C482        C483   1.404       .  A
C483        C484   1.398       .  A
C483        F490   1.358       .  S
C484        C485   1.425       .  A
C484        F489   1.353       .  S
C485        C486   1.420       .  A
C486        F487   1.358       .  S
C491        C492   1.416       .  A
C491        C496   1.391       .  A
C491        F498   1.351       .  S
C492        C493   1.429       .  A
C493        C494   1.401       .  A
C493        F500   1.355       .  S
C494        C495   1.403       .  A
C494        F499   1.358       .  S
C495        C496   1.407       .  A
C496        F497   1.359       .  S
C501        C502   1.421       .  A
C501        C506   1.405       .  A
C501        F508   1.355       .  S
C502        C503   1.427       .  A
C503        C504   1.394       .  A
C503        F510   1.356       .  S
C504        C505   1.393       .  A
C504        F509   1.356       .  S
C505        C506   1.400       .  A
C506        F507   1.358       .  S
C511        C512   1.401       .  A
C511        C516   1.408       .  A
C511        F518   1.358       .  S
C512        C513   1.392       .  A
C513        C514   1.388       .  A
C513        F520   1.360       .  S
C514        C515   1.435       .  A
C514        F519   1.355       .  S
C515        C516   1.426       .  A
C516        F517   1.358       .  S
C521        C522   1.425       .  A
C521        C526   1.403       .  A
C521        F528   1.355       .  S
C522        C523   1.420       .  A
C523        C524   1.395       .  A
C523        F530   1.350       .  S
C524        C525   1.403       .  A
C524        F529   1.359       .  S
C525        C526   1.407       .  A
C526        F527   1.357       .  S
C531        C532   1.399       .  A
C531        C536   1.404       .  A
C531        F538   1.358       .  S
C532        C533   1.392       .  A
C533        C534   1.394       .  A
C533        F540   1.356       .  S
C534        C535   1.427       .  A
C534        F539   1.355       .  S
C535        C536   1.421       .  A
C536        F537   1.354       .  S
O541       Zr553   2.442       .  S
O541        C543   1.287       .  A
O542        C543   1.288       .  A
C543        C775   1.471       .  S
O544      Zr1636   2.438       .  S
O544        C546   1.288       .  A
O545       Zr850   2.430       .  S
O545        C546   1.288       .  A
C546        C745   1.492       .  S
O547       Zr556   2.449       .  S
O547        C549   1.289       .  A
O548        C549   1.286       .  A
C549        C802   1.469       .  S
O550      Zr1633   2.448       .  S
O550        C552   1.290       .  A
O551       Zr580   2.426       .  S
O551        C552   1.287       .  A
C552        C795   1.493       .  S
Zr553      O1630   2.448       .  S
Zr553       O554   2.434       .  S
Zr553      O1635   2.435       .  S
Zr553       O829   2.378       .  S
Zr553      O1640   2.370       .  S
Zr553      O1663   2.370       .  S
O554        H597   0.990       .  S
O555      Zr1633   2.435       .  S
O555       H1676   0.990   1_455  S
O555        H600   0.990       .  S
Zr556      O1624   2.438       .  S
Zr556       O557   2.435       .  S
Zr556      O1638   2.434       .  S
Zr556      O1910   2.371       .  S
Zr556       O559   2.374   1_554  S
Zr556      O1666   2.374       .  S
O557       H1678   0.990       .  S
O557        H601   0.990       .  S
O558      Zr1636   2.434       .  S
O558       H1671   0.990   1_455  S
O559       Zr823   2.378       .  S
O560      Zr1633   2.370       .  S
O560      Zr1906   2.371       .  S
O560       Zr580   2.389       .  S
O560        H587   0.966       .  S
O561       Zr573   2.433       .  S
O561        C563   1.287       .  A
O562        C563   1.288       .  A
C563        C732   1.486       .  S
O564      Zr1656   2.417       .  S
O564        C566   1.284       .  A
O565       Zr579   2.428   1_554  S
O565        C566   1.287       .  A
C566        C752   1.487       .  S
O567       Zr576   2.420       .  S
O567        C569   1.284       .  A
O568        C569   1.288       .  A
C569        C765   1.488       .  S
O570      Zr1653   2.439       .  S
O570        C572   1.289       .  A
O571       Zr849   2.425       .  S
O571        C572   1.285       .  A
C572        C782   1.476       .  S
Zr573      O1650   2.439   1_455  S
Zr573      O1654   2.436       .  S
Zr573      O1655   2.434       .  S
Zr573       O581   2.366       .  S
Zr573      O1932   2.365   1_455  S
Zr573      O1665   2.364   1_455  S
O574      Zr1653   2.436       .  S
O574       H1674   0.990       .  S
O574       H1679   0.990       .  S
O575      Zr1653   2.434       .  S
O575       H1675   0.990       .  S
Zr576      O1644   2.417   1_455  S
Zr576       O577   2.434       .  S
Zr576      O1658   2.435       .  S
Zr576      O1662   2.367   1_454  S
Zr576       O851   2.363       .  S
Zr576      O1664   2.362   1_455  S
O577       H1673   0.990   1_455  S
O578      Zr1656   2.435       .  S
O578       H1672   0.990       .  S
O578       H1682   0.990       .  S
Zr579       O841   2.425       .  S
Zr579       O582   2.381       .  S
Zr579       O584   2.384   1_556  S
Zr579       O855   2.387       .  S
Zr580       O815   2.430       .  S
Zr580       O583   2.385       .  S
Zr580       O856   2.385       .  S
O581       Zr846   2.363       .  S
O581        H589   0.966       .  S
O582      Zr1923   2.365       .  S
O582      Zr1656   2.367   1_556  S
O583      Zr1633   2.370       .  S
O584      Zr1656   2.362       .  S
O584        H588   0.966       .  S
O585      Zr1653   2.364       .  S
O585       Zr849   2.387       .  S
O585        H590   0.966       .  S
O586      Zr1636   2.374       .  S
O586       Zr850   2.385       .  S
H591       O1638   0.990       .  S
H592       O1658   0.990       .  S
H593       O1657   0.990       .  S
H594       O1654   0.990       .  S
H595       O1655   0.990       .  S
H596       O1635   0.990       .  S
H598       O1637   0.990       .  S
H599       O1654   0.990       .  S
H602       O1658   0.990       .  S
C603        C702   1.582       .  S
C603        C712   1.585       .  S
C603        C722   1.613       .  S
C603        C735   1.563       .  S
C604        C682   1.600       .  S
C604        C692   1.595       .  S
C604        C725   1.599       .  S
C604        C792   1.561       .  S
C605        C662   1.597       .  S
C605        C672   1.591       .  S
C605        C685   1.598       .  S
C605        C742   1.560       .  S
C606        C652   1.593       .  S
C606        C665   1.594       .  S
C606        C705   1.598       .  S
C606        C762   1.559       .  S
C607        C635   1.577       .  S
C607        C642   1.576       .  S
C607        C715   1.609       .  S
C607        C785   1.580       .  S
C608        C622   1.571       .  S
C608        C632   1.586       .  S
C608        C655   1.602       .  S
C608        C755   1.558       .  S
C609        C612   1.605       .  S
C609        C625   1.578       .  S
C609        C675   1.582       .  S
C609        C805   1.562       .  S
C610        C615   1.594       .  S
C610        C645   1.576       .  S
C610        C695   1.587       .  S
C610        C772   1.559       .  S
C611        C612   1.431       .  A
C611        C616   1.438       .  A
C611        F618   1.356       .  S
C612        C613   1.409       .  A
C613        C614   1.376       .  A
C613        F620   1.332       .  S
C614        C615   1.402       .  A
C614        F619   1.341       .  S
C615        C616   1.427       .  A
C616        F617   1.355       .  S
C621        C622   1.407       .  A
C621        C626   1.366       .  A
C621        F628   1.352       .  S
C622        C623   1.426       .  A
C623        C624   1.419       .  A
C623        F630   1.351       .  S
C624        C625   1.430       .  A
C624        F629   1.357       .  S
C625        C626   1.410       .  A
C626        F627   1.344       .  S
C631        C632   1.414       .  A
C631        C636   1.410       .  A
C631        F638   1.359       .  S
C632        C633   1.423       .  A
C633        C634   1.379       .  A
C633        F640   1.351       .  S
C634        C635   1.418       .  A
C634        F639   1.345       .  S
C635        C636   1.431       .  A
C636        F637   1.358       .  S
C641        C642   1.413       .  A
C641        C646   1.376       .  A
C641        F648   1.341       .  S
C642        C643   1.422       .  A
C643        C644   1.413       .  A
C643        F650   1.357       .  S
C644        C645   1.423       .  A
C644        F649   1.357       .  S
C645        C646   1.414       .  A
C646        F647   1.344       .  S
C651        C652   1.420       .  A
C651        C656   1.400       .  A
C651        F658   1.343       .  S
C652        C653   1.422       .  A
C653        C654   1.411       .  A
C653        F660   1.357       .  S
C654        C655   1.428       .  A
C654        F659   1.359       .  S
C655        C656   1.414       .  A
C656        F657   1.347       .  S
C661        C662   1.427       .  A
C661        C666   1.427       .  A
C661        F668   1.355       .  S
C662        C663   1.409       .  A
C663        C664   1.393       .  A
C663        F670   1.345       .  S
C664        C665   1.409       .  A
C664        F669   1.349       .  S
C665        C666   1.425       .  A
C666        F667   1.355       .  S
C671        C672   1.424       .  A
C671        C676   1.415       .  A
C671        F678   1.357       .  S
C672        C673   1.420       .  A
C673        C674   1.399       .  A
C673        F680   1.335       .  S
C674        C675   1.406       .  A
C674        F679   1.354       .  S
C675        C676   1.420       .  A
C676        F677   1.352       .  S
C681        C682   1.409       .  A
C681        C686   1.387       .  A
C681        F688   1.343       .  S
C682        C683   1.422       .  A
C683        C684   1.433       .  A
C683        F690   1.358       .  S
C684        C685   1.423       .  A
C684        F689   1.358       .  S
C685        C686   1.411       .  A
C686        F687   1.344       .  S
C691        C692   1.425       .  A
C691        C696   1.422       .  A
C691        F698   1.357       .  S
C692        C693   1.419       .  A
C693        C694   1.399       .  A
C693        F700   1.337       .  S
C694        C695   1.408       .  A
C694        F699   1.354       .  S
C695        C696   1.421       .  A
C696        F697   1.355       .  S
C701        C702   1.429       .  A
C701        C706   1.427       .  A
C701        F708   1.355       .  S
C702        C703   1.400       .  A
C703        C704   1.390       .  A
C703        F710   1.342       .  S
C704        C705   1.415       .  A
C704        F709   1.345       .  S
C705        C706   1.418       .  A
C706        F707   1.358       .  S
C711        C712   1.423       .  A
C711        C716   1.426       .  A
C711        F718   1.357       .  S
C712        C713   1.408       .  A
C713        C714   1.378       .  A
C713        F720   1.345       .  S
C714        C715   1.432       .  A
C714        F719   1.352       .  S
C715        C716   1.433       .  A
C716        F717   1.348       .  S
C721        C722   1.420       .  A
C721        C726   1.394       .  A
C721        F728   1.340       .  S
C722        C723   1.431       .  A
C723        C724   1.434       .  A
C723        F730   1.356       .  S
C724        C725   1.426       .  A
C724        F729   1.356       .  S
C725        C726   1.403       .  A
C726        F727   1.349       .  S
C731        C732   1.403       .  A
C731        C736   1.393       .  A
C731        F738   1.358       .  S
C732        C733   1.402       .  A
C733        C734   1.403       .  A
C733        F740   1.357       .  S
C734        C735   1.427       .  A
C734        F739   1.355       .  S
C735        C736   1.420       .  A
C736        F737   1.353       .  S
C741        C742   1.425       .  A
C741        C746   1.403       .  A
C741        F748   1.356       .  S
C742        C743   1.417       .  A
C743        C744   1.393       .  A
C743        F750   1.351       .  S
C744        C745   1.405       .  A
C744        F749   1.358       .  S
C745        C746   1.407       .  A
C746        F747   1.358       .  S
C751        C752   1.407       .  A
C751        C756   1.390       .  A
C751        F758   1.359       .  S
C752        C753   1.404       .  A
C753        C754   1.398       .  A
C753        F760   1.358       .  S
C754        C755   1.425       .  A
C754        F759   1.353       .  S
C755        C756   1.420       .  A
C756        F757   1.358       .  S
C761        C762   1.416       .  A
C761        C766   1.391       .  A
C761        F768   1.351       .  S
C762        C763   1.429       .  A
C763        C764   1.401       .  A
C763        F770   1.355       .  S
C764        C765   1.403       .  A
C764        F769   1.358       .  S
C765        C766   1.407       .  A
C766        F767   1.359       .  S
C771        C772   1.421       .  A
C771        C776   1.405       .  A
C771        F778   1.355       .  S
C772        C773   1.427       .  A
C773        C774   1.394       .  A
C773        F780   1.356       .  S
C774        C775   1.393       .  A
C774        F779   1.356       .  S
C775        C776   1.400       .  A
C776        F777   1.358       .  S
C781        C782   1.401       .  A
C781        C786   1.408       .  A
C781        F788   1.358       .  S
C782        C783   1.392       .  A
C783        C784   1.388       .  A
C783        F790   1.360       .  S
C784        C785   1.435       .  A
C784        F789   1.355       .  S
C785        C786   1.426       .  A
C786        F787   1.358       .  S
C791        C792   1.425       .  A
C791        C796   1.403       .  A
C791        F798   1.355       .  S
C792        C793   1.420       .  A
C793        C794   1.395       .  A
C793        F800   1.350       .  S
C794        C795   1.403       .  A
C794        F799   1.359       .  S
C795        C796   1.407       .  A
C796        F797   1.357       .  S
C801        C802   1.399       .  A
C801        C806   1.404       .  A
C801        F808   1.358       .  S
C802        C803   1.392       .  A
C803        C804   1.394       .  A
C803        F810   1.356       .  S
C804        C805   1.427       .  A
C804        F809   1.355       .  S
C805        C806   1.421       .  A
C806        F807   1.354       .  S
O811       Zr823   2.442       .  S
O811        C813   1.287       .  A
O812        C813   1.288       .  A
C813       C1045   1.471       .  S
O814      Zr1906   2.438       .  S
O814        C816   1.288       .  A
O815        C816   1.288       .  A
C816       C1015   1.492       .  S
O817       Zr826   2.449       .  S
O817        C819   1.289       .  A
O818        C819   1.286       .  A
C819       C1072   1.469       .  S
O820      Zr1903   2.448       .  S
O820        C822   1.290       .  A
O821       Zr850   2.426   1_556  S
O821        C822   1.287       .  A
C822       C1065   1.493       .  S
Zr823      O1900   2.448       .  S
Zr823       O824   2.434       .  S
Zr823      O1905   2.435       .  S
Zr823      O1910   2.370   1_556  S
Zr823      O1933   2.370       .  S
O824        H867   0.990       .  S
O825      Zr1903   2.435       .  S
O825       H1946   0.990   1_455  S
O825        H870   0.990       .  S
Zr826      O1894   2.438       .  S
Zr826       O827   2.435       .  S
Zr826      O1908   2.434       .  S
Zr826      O1640   2.371       .  S
Zr826       O829   2.374       .  S
Zr826      O1936   2.374       .  S
O827       H1948   0.990       .  S
O827        H871   0.990       .  S
O828      Zr1906   2.434       .  S
O828       H1941   0.990   1_455  S
O830      Zr1903   2.370   1_554  S
O830      Zr1636   2.371       .  S
O830       Zr850   2.389       .  S
O830        H857   0.966       .  S
O831       Zr843   2.433       .  S
O831        C833   1.287       .  A
O832        C833   1.288       .  A
C833       C1002   1.486       .  S
O834      Zr1926   2.417       .  S
O834        C836   1.284       .  A
O835       Zr849   2.428       .  S
O835        C836   1.287       .  A
C836       C1022   1.487       .  S
O837       Zr846   2.420       .  S
O837        C839   1.284       .  A
O838        C839   1.288       .  A
C839       C1035   1.488       .  S
O840      Zr1923   2.439       .  S
O840        C842   1.289       .  A
O841        C842   1.285       .  A
C842       C1052   1.476       .  S
Zr843      O1920   2.439   1_455  S
Zr843      O1924   2.436       .  S
Zr843      O1925   2.434       .  S
Zr843       O851   2.366   1_556  S
Zr843      O1662   2.365   1_455  S
Zr843      O1935   2.364   1_455  S
O844      Zr1923   2.436       .  S
O844       H1944   0.990       .  S
O844       H1949   0.990       .  S
O845      Zr1923   2.434       .  S
O845       H1945   0.990       .  S
Zr846      O1914   2.417   1_455  S
Zr846       O847   2.434       .  S
Zr846      O1928   2.435       .  S
Zr846      O1932   2.367   1_455  S
Zr846      O1934   2.362   1_455  S
O847       H1943   0.990   1_455  S
O848      Zr1926   2.435       .  S
O848       H1942   0.990       .  S
O848       H1952   0.990       .  S
Zr849       O852   2.381       .  S
Zr849       O854   2.384       .  S
Zr850       O853   2.385   1_554  S
O851        H859   0.966       .  S
O852      Zr1653   2.365       .  S
O852      Zr1926   2.367       .  S
O853      Zr1903   2.370       .  S
O854      Zr1926   2.362       .  S
O854        H858   0.966       .  S
O855      Zr1923   2.364       .  S
O855        H860   0.966       .  S
O856      Zr1906   2.374       .  S
H861       O1908   0.990       .  S
H862       O1928   0.990       .  S
H863       O1927   0.990       .  S
H864       O1924   0.990       .  S
H865       O1925   0.990       .  S
H866       O1905   0.990       .  S
H868       O1907   0.990       .  S
H869       O1924   0.990       .  S
H872       O1928   0.990       .  S
C873        C972   1.582       .  S
C873        C982   1.585       .  S
C873        C992   1.613       .  S
C873       C1005   1.563       .  S
C874        C952   1.600       .  S
C874        C962   1.595       .  S
C874        C995   1.599       .  S
C874       C1062   1.561       .  S
C875        C932   1.597       .  S
C875        C942   1.591       .  S
C875        C955   1.598       .  S
C875       C1012   1.560       .  S
C876        C922   1.593       .  S
C876        C935   1.594       .  S
C876        C975   1.598       .  S
C876       C1032   1.559       .  S
C877        C905   1.577       .  S
C877        C912   1.576       .  S
C877        C985   1.609       .  S
C877       C1055   1.580       .  S
C878        C892   1.571       .  S
C878        C902   1.586       .  S
C878        C925   1.602       .  S
C878       C1025   1.558       .  S
C879        C882   1.605       .  S
C879        C895   1.578       .  S
C879        C945   1.582       .  S
C879       C1075   1.562       .  S
C880        C885   1.594       .  S
C880        C915   1.576       .  S
C880        C965   1.587       .  S
C880       C1042   1.559       .  S
C881        C882   1.431       .  A
C881        C886   1.438       .  A
C881        F888   1.356       .  S
C882        C883   1.409       .  A
C883        C884   1.376       .  A
C883        F890   1.332       .  S
C884        C885   1.402       .  A
C884        F889   1.341       .  S
C885        C886   1.427       .  A
C886        F887   1.355       .  S
C891        C892   1.407       .  A
C891        C896   1.366       .  A
C891        F898   1.352       .  S
C892        C893   1.426       .  A
C893        C894   1.419       .  A
C893        F900   1.351       .  S
C894        C895   1.430       .  A
C894        F899   1.357       .  S
C895        C896   1.410       .  A
C896        F897   1.344       .  S
C901        C902   1.414       .  A
C901        C906   1.410       .  A
C901        F908   1.359       .  S
C902        C903   1.423       .  A
C903        C904   1.379       .  A
C903        F910   1.351       .  S
C904        C905   1.418       .  A
C904        F909   1.345       .  S
C905        C906   1.431       .  A
C906        F907   1.358       .  S
C911        C912   1.413       .  A
C911        C916   1.376       .  A
C911        F918   1.341       .  S
C912        C913   1.423       .  A
C913        C914   1.413       .  A
C913        F920   1.357       .  S
C914        C915   1.423       .  A
C914        F919   1.357       .  S
C915        C916   1.414       .  A
C916        F917   1.344       .  S
C921        C922   1.420       .  A
C921        C926   1.400       .  A
C921        F928   1.343       .  S
C922        C923   1.422       .  A
C923        C924   1.411       .  A
C923        F930   1.357       .  S
C924        C925   1.428       .  A
C924        F929   1.359       .  S
C925        C926   1.414       .  A
C926        F927   1.347       .  S
C931        C932   1.427       .  A
C931        C936   1.427       .  A
C931        F938   1.355       .  S
C932        C933   1.409       .  A
C933        C934   1.393       .  A
C933        F940   1.345       .  S
C934        C935   1.409       .  A
C934        F939   1.349       .  S
C935        C936   1.425       .  A
C936        F937   1.355       .  S
C941        C942   1.424       .  A
C941        C946   1.415       .  A
C941        F948   1.357       .  S
C942        C943   1.420       .  A
C943        C944   1.399       .  A
C943        F950   1.335       .  S
C944        C945   1.406       .  A
C944        F949   1.354       .  S
C945        C946   1.420       .  A
C946        F947   1.352       .  S
C951        C952   1.409       .  A
C951        C956   1.387       .  A
C951        F958   1.343       .  S
C952        C953   1.422       .  A
C953        C954   1.433       .  A
C953        F960   1.358       .  S
C954        C955   1.423       .  A
C954        F959   1.358       .  S
C955        C956   1.411       .  A
C956        F957   1.344       .  S
C961        C962   1.425       .  A
C961        C966   1.422       .  A
C961        F968   1.357       .  S
C962        C963   1.419       .  A
C963        C964   1.399       .  A
C963        F970   1.337       .  S
C964        C965   1.408       .  A
C964        F969   1.354       .  S
C965        C966   1.421       .  A
C966        F967   1.355       .  S
C971        C972   1.429       .  A
C971        C976   1.427       .  A
C971        F978   1.355       .  S
C972        C973   1.400       .  A
C973        C974   1.390       .  A
C973        F980   1.342       .  S
C974        C975   1.415       .  A
C974        F979   1.345       .  S
C975        C976   1.418       .  A
C976        F977   1.358       .  S
C981        C982   1.423       .  A
C981        C986   1.426       .  A
C981        F988   1.357       .  S
C982        C983   1.408       .  A
C983        C984   1.378       .  A
C983        F990   1.345       .  S
C984        C985   1.432       .  A
C984        F989   1.352       .  S
C985        C986   1.433       .  A
C986        F987   1.348       .  S
C991        C992   1.420       .  A
C991        C996   1.394       .  A
C991        F998   1.340       .  S
C992        C993   1.431       .  A
C993        C994   1.434       .  A
C993       F1000   1.356       .  S
C994        C995   1.426       .  A
C994        F999   1.356       .  S
C995        C996   1.403       .  A
C996        F997   1.349       .  S
C1001      C1002   1.403       .  A
C1001      C1006   1.393       .  A
C1001      F1008   1.358       .  S
C1002      C1003   1.402       .  A
C1003      C1004   1.403       .  A
C1003      F1010   1.357       .  S
C1004      C1005   1.427       .  A
C1004      F1009   1.355       .  S
C1005      C1006   1.420       .  A
C1006      F1007   1.353       .  S
C1011      C1012   1.425       .  A
C1011      C1016   1.403       .  A
C1011      F1018   1.356       .  S
C1012      C1013   1.417       .  A
C1013      C1014   1.393       .  A
C1013      F1020   1.351       .  S
C1014      C1015   1.405       .  A
C1014      F1019   1.358       .  S
C1015      C1016   1.407       .  A
C1016      F1017   1.358       .  S
C1021      C1022   1.407       .  A
C1021      C1026   1.390       .  A
C1021      F1028   1.359       .  S
C1022      C1023   1.404       .  A
C1023      C1024   1.398       .  A
C1023      F1030   1.358       .  S
C1024      C1025   1.425       .  A
C1024      F1029   1.353       .  S
C1025      C1026   1.420       .  A
C1026      F1027   1.358       .  S
C1031      C1032   1.416       .  A
C1031      C1036   1.391       .  A
C1031      F1038   1.351       .  S
C1032      C1033   1.429       .  A
C1033      C1034   1.401       .  A
C1033      F1040   1.355       .  S
C1034      C1035   1.403       .  A
C1034      F1039   1.358       .  S
C1035      C1036   1.407       .  A
C1036      F1037   1.359       .  S
C1041      C1042   1.421       .  A
C1041      C1046   1.405       .  A
C1041      F1048   1.355       .  S
C1042      C1043   1.427       .  A
C1043      C1044   1.394       .  A
C1043      F1050   1.356       .  S
C1044      C1045   1.393       .  A
C1044      F1049   1.356       .  S
C1045      C1046   1.400       .  A
C1046      F1047   1.358       .  S
C1051      C1052   1.401       .  A
C1051      C1056   1.408       .  A
C1051      F1058   1.358       .  S
C1052      C1053   1.392       .  A
C1053      C1054   1.388       .  A
C1053      F1060   1.360       .  S
C1054      C1055   1.435       .  A
C1054      F1059   1.355       .  S
C1055      C1056   1.426       .  A
C1056      F1057   1.358       .  S
C1061      C1062   1.425       .  A
C1061      C1066   1.403       .  A
C1061      F1068   1.355       .  S
C1062      C1063   1.420       .  A
C1063      C1064   1.395       .  A
C1063      F1070   1.350       .  S
C1064      C1065   1.403       .  A
C1064      F1069   1.359       .  S
C1065      C1066   1.407       .  A
C1066      F1067   1.357       .  S
C1071      C1072   1.399       .  A
C1071      C1076   1.404       .  A
C1071      F1078   1.358       .  S
C1072      C1073   1.392       .  A
C1073      C1074   1.394       .  A
C1073      F1080   1.356       .  S
C1074      C1075   1.427       .  A
C1074      F1079   1.355       .  S
C1075      C1076   1.421       .  A
C1076      F1077   1.354       .  S
O1081     Zr1093   2.442   1_655  S
O1081      C1083   1.287       .  A
O1082     Zr1929   2.436       .  S
O1082      C1083   1.288       .  A
C1083      C1315   1.471       .  S
O1084      C1086   1.288       .  A
O1085     Zr1390   2.430       .  S
O1085      C1086   1.288       .  A
C1086      C1285   1.492       .  S
O1087     Zr1096   2.449   1_655  S
O1087      C1089   1.289       .  A
O1088     Zr1659   2.423   1_554  S
O1088      C1089   1.286       .  A
C1089      C1342   1.469       .  S
O1090      C1092   1.290       .  A
O1091     Zr1120   2.426       .  S
O1091      C1092   1.287       .  A
C1092      C1335   1.493       .  S
Zr1093     O1094   2.434       .  S
Zr1093     O1369   2.378   1_455  S
Zr1093     O1665   2.373   1_455  S
O1094      H1137   0.990   1_455  S
O1095      H1140   0.990       .  S
Zr1096     O1097   2.435       .  S
Zr1096     O1099   2.374   1_454  S
Zr1096     O1664   2.365   1_455  S
O1097      H1141   0.990       .  S
O1099     Zr1363   2.378   1_655  S
O1099     Zr1659   2.386       .  S
O1100     Zr1120   2.389       .  S
O1100      H1127   0.966       .  S
O1101     Zr1113   2.433       .  S
O1101      C1103   1.287       .  A
O1102     Zr1660   2.434   1_545  S
O1102      C1103   1.288       .  A
C1103      C1272   1.486       .  S
O1104      C1106   1.284       .  A
O1105     Zr1119   2.428   1_544  S
O1105      C1106   1.287       .  A
C1106      C1292   1.487       .  S
O1107     Zr1116   2.420       .  S
O1107      C1109   1.284       .  A
O1108     Zr1930   2.434   1_545  S
O1108      C1109   1.288       .  A
C1109      C1305   1.488       .  S
O1110      C1112   1.289       .  A
O1111     Zr1389   2.425   1_545  S
O1111      C1112   1.285       .  A
C1112      C1322   1.476       .  S
Zr1113     O1121   2.366       .  S
Zr1113     O1663   2.373   1_545  S
Zr1116     O1117   2.434       .  S
Zr1116     O1391   2.363       .  S
Zr1116     O1666   2.365   1_545  S
Zr1119     O1892   2.436       .  S
Zr1119     O1628   2.423   1_556  S
Zr1119     O1381   2.425   1_565  S
Zr1119     O1639   2.386       .  S
Zr1119     O1122   2.381   1_565  S
Zr1119     O1124   2.385   1_556  S
Zr1119     O1395   2.387       .  S
Zr1120     O1355   2.430       .  S
Zr1120     O1642   2.434       .  S
Zr1120     O1918   2.434       .  S
Zr1120     O1661   2.385       .  S
Zr1120     O1123   2.385       .  S
Zr1120     O1396   2.385       .  S
O1121     Zr1386   2.363       .  S
O1121     Zr1660   2.385   1_545  S
O1121      H1129   0.966       .  S
O1123     Zr1653   2.373       .  S
O1124     Zr1636   2.365   1_655  S
O1124      H1128   0.966       .  S
O1125     Zr1633   2.373   1_655  S
O1125     Zr1389   2.387       .  S
O1125      H1130   0.966       .  S
O1126     Zr1656   2.365       .  S
O1126     Zr1390   2.385       .  S
C1143      C1242   1.582       .  S
C1143      C1252   1.585       .  S
C1143      C1262   1.613       .  S
C1143      C1275   1.563       .  S
C1144      C1222   1.600       .  S
C1144      C1232   1.595       .  S
C1144      C1265   1.599       .  S
C1144      C1332   1.561       .  S
C1145      C1202   1.597       .  S
C1145      C1212   1.591       .  S
C1145      C1225   1.598       .  S
C1145      C1282   1.560       .  S
C1146      C1192   1.593       .  S
C1146      C1205   1.594       .  S
C1146      C1245   1.598       .  S
C1146      C1302   1.559       .  S
C1147      C1175   1.577       .  S
C1147      C1182   1.576       .  S
C1147      C1255   1.609       .  S
C1147      C1325   1.580       .  S
C1148      C1162   1.571       .  S
C1148      C1172   1.586       .  S
C1148      C1195   1.602       .  S
C1148      C1295   1.558       .  S
C1149      C1152   1.605       .  S
C1149      C1165   1.578       .  S
C1149      C1215   1.582       .  S
C1149      C1345   1.562       .  S
C1150      C1155   1.594       .  S
C1150      C1185   1.576       .  S
C1150      C1235   1.587       .  S
C1150      C1312   1.559       .  S
C1151      C1152   1.431       .  A
C1151      C1156   1.438       .  A
C1151      F1158   1.356       .  S
C1152      C1153   1.409       .  A
C1153      C1154   1.376       .  A
C1153      F1160   1.332       .  S
C1154      C1155   1.402       .  A
C1154      F1159   1.341       .  S
C1155      C1156   1.427       .  A
C1156      F1157   1.355       .  S
C1161      C1162   1.407       .  A
C1161      C1166   1.366       .  A
C1161      F1168   1.352       .  S
C1162      C1163   1.426       .  A
C1163      C1164   1.419       .  A
C1163      F1170   1.351       .  S
C1164      C1165   1.430       .  A
C1164      F1169   1.357       .  S
C1165      C1166   1.410       .  A
C1166      F1167   1.344       .  S
C1171      C1172   1.414       .  A
C1171      C1176   1.410       .  A
C1171      F1178   1.359       .  S
C1172      C1173   1.423       .  A
C1173      C1174   1.379       .  A
C1173      F1180   1.351       .  S
C1174      C1175   1.418       .  A
C1174      F1179   1.345       .  S
C1175      C1176   1.431       .  A
C1176      F1177   1.358       .  S
C1181      C1182   1.413       .  A
C1181      C1186   1.376       .  A
C1181      F1188   1.341       .  S
C1182      C1183   1.422       .  A
C1183      C1184   1.413       .  A
C1183      F1190   1.357       .  S
C1184      C1185   1.423       .  A
C1184      F1189   1.357       .  S
C1185      C1186   1.414       .  A
C1186      F1187   1.344       .  S
C1191      C1192   1.420       .  A
C1191      C1196   1.400       .  A
C1191      F1198   1.343       .  S
C1192      C1193   1.422       .  A
C1193      C1194   1.411       .  A
C1193      F1200   1.357       .  S
C1194      C1195   1.428       .  A
C1194      F1199   1.359       .  S
C1195      C1196   1.414       .  A
C1196      F1197   1.347       .  S
C1201      C1202   1.427       .  A
C1201      C1206   1.427       .  A
C1201      F1208   1.355       .  S
C1202      C1203   1.409       .  A
C1203      C1204   1.393       .  A
C1203      F1210   1.345       .  S
C1204      C1205   1.409       .  A
C1204      F1209   1.349       .  S
C1205      C1206   1.425       .  A
C1206      F1207   1.355       .  S
C1211      C1212   1.424       .  A
C1211      C1216   1.415       .  A
C1211      F1218   1.357       .  S
C1212      C1213   1.420       .  A
C1213      C1214   1.399       .  A
C1213      F1220   1.335       .  S
C1214      C1215   1.406       .  A
C1214      F1219   1.354       .  S
C1215      C1216   1.420       .  A
C1216      F1217   1.352       .  S
C1221      C1222   1.409       .  A
C1221      C1226   1.387       .  A
C1221      F1228   1.343       .  S
C1222      C1223   1.422       .  A
C1223      C1224   1.433       .  A
C1223      F1230   1.358       .  S
C1224      C1225   1.423       .  A
C1224      F1229   1.358       .  S
C1225      C1226   1.411       .  A
C1226      F1227   1.344       .  S
C1231      C1232   1.425       .  A
C1231      C1236   1.422       .  A
C1231      F1238   1.357       .  S
C1232      C1233   1.419       .  A
C1233      C1234   1.399       .  A
C1233      F1240   1.337       .  S
C1234      C1235   1.408       .  A
C1234      F1239   1.354       .  S
C1235      C1236   1.421       .  A
C1236      F1237   1.355       .  S
C1241      C1242   1.429       .  A
C1241      C1246   1.427       .  A
C1241      F1248   1.355       .  S
C1242      C1243   1.400       .  A
C1243      C1244   1.390       .  A
C1243      F1250   1.342       .  S
C1244      C1245   1.415       .  A
C1244      F1249   1.345       .  S
C1245      C1246   1.418       .  A
C1246      F1247   1.358       .  S
C1251      C1252   1.423       .  A
C1251      C1256   1.426       .  A
C1251      F1258   1.357       .  S
C1252      C1253   1.408       .  A
C1253      C1254   1.378       .  A
C1253      F1260   1.345       .  S
C1254      C1255   1.432       .  A
C1254      F1259   1.352       .  S
C1255      C1256   1.433       .  A
C1256      F1257   1.348       .  S
C1261      C1262   1.420       .  A
C1261      C1266   1.394       .  A
C1261      F1268   1.340       .  S
C1262      C1263   1.431       .  A
C1263      C1264   1.434       .  A
C1263      F1270   1.356       .  S
C1264      C1265   1.426       .  A
C1264      F1269   1.356       .  S
C1265      C1266   1.403       .  A
C1266      F1267   1.349       .  S
C1271      C1272   1.403       .  A
C1271      C1276   1.393       .  A
C1271      F1278   1.358       .  S
C1272      C1273   1.402       .  A
C1273      C1274   1.403       .  A
C1273      F1280   1.357       .  S
C1274      C1275   1.427       .  A
C1274      F1279   1.355       .  S
C1275      C1276   1.420       .  A
C1276      F1277   1.353       .  S
C1281      C1282   1.425       .  A
C1281      C1286   1.403       .  A
C1281      F1288   1.356       .  S
C1282      C1283   1.417       .  A
C1283      C1284   1.393       .  A
C1283      F1290   1.351       .  S
C1284      C1285   1.405       .  A
C1284      F1289   1.358       .  S
C1285      C1286   1.407       .  A
C1286      F1287   1.358       .  S
C1291      C1292   1.407       .  A
C1291      C1296   1.390       .  A
C1291      F1298   1.359       .  S
C1292      C1293   1.404       .  A
C1293      C1294   1.398       .  A
C1293      F1300   1.358       .  S
C1294      C1295   1.425       .  A
C1294      F1299   1.353       .  S
C1295      C1296   1.420       .  A
C1296      F1297   1.358       .  S
C1301      C1302   1.416       .  A
C1301      C1306   1.391       .  A
C1301      F1308   1.351       .  S
C1302      C1303   1.429       .  A
C1303      C1304   1.401       .  A
C1303      F1310   1.355       .  S
C1304      C1305   1.403       .  A
C1304      F1309   1.358       .  S
C1305      C1306   1.407       .  A
C1306      F1307   1.359       .  S
C1311      C1312   1.421       .  A
C1311      C1316   1.405       .  A
C1311      F1318   1.355       .  S
C1312      C1313   1.427       .  A
C1313      C1314   1.394       .  A
C1313      F1320   1.356       .  S
C1314      C1315   1.393       .  A
C1314      F1319   1.356       .  S
C1315      C1316   1.400       .  A
C1316      F1317   1.358       .  S
C1321      C1322   1.401       .  A
C1321      C1326   1.408       .  A
C1321      F1328   1.358       .  S
C1322      C1323   1.392       .  A
C1323      C1324   1.388       .  A
C1323      F1330   1.360       .  S
C1324      C1325   1.435       .  A
C1324      F1329   1.355       .  S
C1325      C1326   1.426       .  A
C1326      F1327   1.358       .  S
C1331      C1332   1.425       .  A
C1331      C1336   1.403       .  A
C1331      F1338   1.355       .  S
C1332      C1333   1.420       .  A
C1333      C1334   1.395       .  A
C1333      F1340   1.350       .  S
C1334      C1335   1.403       .  A
C1334      F1339   1.359       .  S
C1335      C1336   1.407       .  A
C1336      F1337   1.357       .  S
C1341      C1342   1.399       .  A
C1341      C1346   1.404       .  A
C1341      F1348   1.358       .  S
C1342      C1343   1.392       .  A
C1343      C1344   1.394       .  A
C1343      F1350   1.356       .  S
C1344      C1345   1.427       .  A
C1344      F1349   1.355       .  S
C1345      C1346   1.421       .  A
C1346      F1347   1.354       .  S
O1351     Zr1363   2.442   1_655  S
O1351      C1353   1.287       .  A
O1352     Zr1659   2.436       .  S
O1352      C1353   1.288       .  A
C1353      C1585   1.471       .  S
O1354      C1356   1.288       .  A
O1355      C1356   1.288       .  A
C1356      C1555   1.492       .  S
O1357     Zr1366   2.449   1_655  S
O1357      C1359   1.289       .  A
O1358     Zr1929   2.423       .  S
O1358      C1359   1.286       .  A
C1359      C1612   1.469       .  S
O1360      C1362   1.290       .  A
O1361     Zr1390   2.426   1_556  S
O1361      C1362   1.287       .  A
C1362      C1605   1.493       .  S
Zr1363     O1364   2.434       .  S
Zr1363     O1935   2.373   1_455  S
O1364      H1407   0.990   1_455  S
O1365      H1410   0.990       .  S
Zr1366     O1367   2.435       .  S
Zr1366     O1369   2.374   1_455  S
Zr1366     O1934   2.365   1_455  S
O1367      H1411   0.990       .  S
O1369     Zr1929   2.386       .  S
O1370     Zr1390   2.389       .  S
O1370      H1397   0.966       .  S
O1371     Zr1383   2.433       .  S
O1371      C1373   1.287       .  A
O1372     Zr1930   2.434   1_546  S
O1372      C1373   1.288       .  A
C1373      C1542   1.486       .  S
O1374      C1376   1.284       .  A
O1375     Zr1389   2.428   1_545  S
O1375      C1376   1.287       .  A
C1376      C1562   1.487       .  S
O1377     Zr1386   2.420       .  S
O1377      C1379   1.284       .  A
O1378     Zr1660   2.434   1_545  S
O1378      C1379   1.288       .  A
C1379      C1575   1.488       .  S
O1380      C1382   1.289       .  A
O1381      C1382   1.285       .  A
C1382      C1592   1.476       .  S
Zr1383     O1391   2.366   1_556  S
Zr1383     O1933   2.373   1_545  S
Zr1386     O1387   2.434       .  S
Zr1386     O1936   2.365   1_545  S
Zr1389     O1622   2.436       .  S
Zr1389     O1898   2.423       .  S
Zr1389     O1909   2.386       .  S
Zr1389     O1392   2.381   1_565  S
Zr1389     O1394   2.384       .  S
Zr1390     O1912   2.434   1_554  S
Zr1390     O1648   2.434       .  S
Zr1390     O1931   2.385       .  S
Zr1390     O1393   2.385   1_554  S
O1391     Zr1930   2.385   1_545  S
O1391      H1399   0.966       .  S
O1393     Zr1923   2.373       .  S
O1394     Zr1906   2.365   1_655  S
O1394      H1398   0.966       .  S
O1395     Zr1903   2.373   1_655  S
O1395      H1400   0.966       .  S
O1396     Zr1926   2.365       .  S
C1413      C1512   1.582       .  S
C1413      C1522   1.585       .  S
C1413      C1532   1.613       .  S
C1413      C1545   1.563       .  S
C1414      C1492   1.600       .  S
C1414      C1502   1.595       .  S
C1414      C1535   1.599       .  S
C1414      C1602   1.561       .  S
C1415      C1472   1.597       .  S
C1415      C1482   1.591       .  S
C1415      C1495   1.598       .  S
C1415      C1552   1.560       .  S
C1416      C1462   1.593       .  S
C1416      C1475   1.594       .  S
C1416      C1515   1.598       .  S
C1416      C1572   1.559       .  S
C1417      C1445   1.577       .  S
C1417      C1452   1.576       .  S
C1417      C1525   1.609       .  S
C1417      C1595   1.580       .  S
C1418      C1432   1.571       .  S
C1418      C1442   1.586       .  S
C1418      C1465   1.602       .  S
C1418      C1565   1.558       .  S
C1419      C1422   1.605       .  S
C1419      C1435   1.578       .  S
C1419      C1485   1.582       .  S
C1419      C1615   1.562       .  S
C1420      C1425   1.594       .  S
C1420      C1455   1.576       .  S
C1420      C1505   1.587       .  S
C1420      C1582   1.559       .  S
C1421      C1422   1.431       .  A
C1421      C1426   1.438       .  A
C1421      F1428   1.356       .  S
C1422      C1423   1.409       .  A
C1423      C1424   1.376       .  A
C1423      F1430   1.332       .  S
C1424      C1425   1.402       .  A
C1424      F1429   1.341       .  S
C1425      C1426   1.427       .  A
C1426      F1427   1.355       .  S
C1431      C1432   1.407       .  A
C1431      C1436   1.366       .  A
C1431      F1438   1.352       .  S
C1432      C1433   1.426       .  A
C1433      C1434   1.419       .  A
C1433      F1440   1.351       .  S
C1434      C1435   1.430       .  A
C1434      F1439   1.357       .  S
C1435      C1436   1.410       .  A
C1436      F1437   1.344       .  S
C1441      C1442   1.414       .  A
C1441      C1446   1.410       .  A
C1441      F1448   1.359       .  S
C1442      C1443   1.423       .  A
C1443      C1444   1.379       .  A
C1443      F1450   1.351       .  S
C1444      C1445   1.418       .  A
C1444      F1449   1.345       .  S
C1445      C1446   1.431       .  A
C1446      F1447   1.358       .  S
C1451      C1452   1.413       .  A
C1451      C1456   1.376       .  A
C1451      F1458   1.341       .  S
C1452      C1453   1.422       .  A
C1453      C1454   1.413       .  A
C1453      F1460   1.357       .  S
C1454      C1455   1.423       .  A
C1454      F1459   1.357       .  S
C1455      C1456   1.414       .  A
C1456      F1457   1.344       .  S
C1461      C1462   1.420       .  A
C1461      C1466   1.400       .  A
C1461      F1468   1.343       .  S
C1462      C1463   1.422       .  A
C1463      C1464   1.411       .  A
C1463      F1470   1.357       .  S
C1464      C1465   1.428       .  A
C1464      F1469   1.359       .  S
C1465      C1466   1.414       .  A
C1466      F1467   1.347       .  S
C1471      C1472   1.427       .  A
C1471      C1476   1.427       .  A
C1471      F1478   1.355       .  S
C1472      C1473   1.409       .  A
C1473      C1474   1.393       .  A
C1473      F1480   1.345       .  S
C1474      C1475   1.409       .  A
C1474      F1479   1.349       .  S
C1475      C1476   1.425       .  A
C1476      F1477   1.355       .  S
C1481      C1482   1.424       .  A
C1481      C1486   1.415       .  A
C1481      F1488   1.357       .  S
C1482      C1483   1.420       .  A
C1483      C1484   1.399       .  A
C1483      F1490   1.335       .  S
C1484      C1485   1.406       .  A
C1484      F1489   1.354       .  S
C1485      C1486   1.420       .  A
C1486      F1487   1.352       .  S
C1491      C1492   1.409       .  A
C1491      C1496   1.387       .  A
C1491      F1498   1.343       .  S
C1492      C1493   1.422       .  A
C1493      C1494   1.433       .  A
C1493      F1500   1.358       .  S
C1494      C1495   1.423       .  A
C1494      F1499   1.358       .  S
C1495      C1496   1.411       .  A
C1496      F1497   1.344       .  S
C1501      C1502   1.425       .  A
C1501      C1506   1.422       .  A
C1501      F1508   1.357       .  S
C1502      C1503   1.419       .  A
C1503      C1504   1.399       .  A
C1503      F1510   1.337       .  S
C1504      C1505   1.408       .  A
C1504      F1509   1.354       .  S
C1505      C1506   1.421       .  A
C1506      F1507   1.355       .  S
C1511      C1512   1.429       .  A
C1511      C1516   1.427       .  A
C1511      F1518   1.355       .  S
C1512      C1513   1.400       .  A
C1513      C1514   1.390       .  A
C1513      F1520   1.342       .  S
C1514      C1515   1.415       .  A
C1514      F1519   1.345       .  S
C1515      C1516   1.418       .  A
C1516      F1517   1.358       .  S
C1521      C1522   1.423       .  A
C1521      C1526   1.426       .  A
C1521      F1528   1.357       .  S
C1522      C1523   1.408       .  A
C1523      C1524   1.378       .  A
C1523      F1530   1.345       .  S
C1524      C1525   1.432       .  A
C1524      F1529   1.352       .  S
C1525      C1526   1.433       .  A
C1526      F1527   1.348       .  S
C1531      C1532   1.420       .  A
C1531      C1536   1.394       .  A
C1531      F1538   1.340       .  S
C1532      C1533   1.431       .  A
C1533      C1534   1.434       .  A
C1533      F1540   1.356       .  S
C1534      C1535   1.426       .  A
C1534      F1539   1.356       .  S
C1535      C1536   1.403       .  A
C1536      F1537   1.349       .  S
C1541      C1542   1.403       .  A
C1541      C1546   1.393       .  A
C1541      F1548   1.358       .  S
C1542      C1543   1.402       .  A
C1543      C1544   1.403       .  A
C1543      F1550   1.357       .  S
C1544      C1545   1.427       .  A
C1544      F1549   1.355       .  S
C1545      C1546   1.420       .  A
C1546      F1547   1.353       .  S
C1551      C1552   1.425       .  A
C1551      C1556   1.403       .  A
C1551      F1558   1.356       .  S
C1552      C1553   1.417       .  A
C1553      C1554   1.393       .  A
C1553      F1560   1.351       .  S
C1554      C1555   1.405       .  A
C1554      F1559   1.358       .  S
C1555      C1556   1.407       .  A
C1556      F1557   1.358       .  S
C1561      C1562   1.407       .  A
C1561      C1566   1.390       .  A
C1561      F1568   1.359       .  S
C1562      C1563   1.404       .  A
C1563      C1564   1.398       .  A
C1563      F1570   1.358       .  S
C1564      C1565   1.425       .  A
C1564      F1569   1.353       .  S
C1565      C1566   1.420       .  A
C1566      F1567   1.358       .  S
C1571      C1572   1.416       .  A
C1571      C1576   1.391       .  A
C1571      F1578   1.351       .  S
C1572      C1573   1.429       .  A
C1573      C1574   1.401       .  A
C1573      F1580   1.355       .  S
C1574      C1575   1.403       .  A
C1574      F1579   1.358       .  S
C1575      C1576   1.407       .  A
C1576      F1577   1.359       .  S
C1581      C1582   1.421       .  A
C1581      C1586   1.405       .  A
C1581      F1588   1.355       .  S
C1582      C1583   1.427       .  A
C1583      C1584   1.394       .  A
C1583      F1590   1.356       .  S
C1584      C1585   1.393       .  A
C1584      F1589   1.356       .  S
C1585      C1586   1.400       .  A
C1586      F1587   1.358       .  S
C1591      C1592   1.401       .  A
C1591      C1596   1.408       .  A
C1591      F1598   1.358       .  S
C1592      C1593   1.392       .  A
C1593      C1594   1.388       .  A
C1593      F1600   1.360       .  S
C1594      C1595   1.435       .  A
C1594      F1599   1.355       .  S
C1595      C1596   1.426       .  A
C1596      F1597   1.358       .  S
C1601      C1602   1.425       .  A
C1601      C1606   1.403       .  A
C1601      F1608   1.355       .  S
C1602      C1603   1.420       .  A
C1603      C1604   1.395       .  A
C1603      F1610   1.350       .  S
C1604      C1605   1.403       .  A
C1604      F1609   1.359       .  S
C1605      C1606   1.407       .  A
C1606      F1607   1.357       .  S
C1611      C1612   1.399       .  A
C1611      C1616   1.404       .  A
C1611      F1618   1.358       .  S
C1612      C1613   1.392       .  A
C1613      C1614   1.394       .  A
C1613      F1620   1.356       .  S
C1614      C1615   1.427       .  A
C1614      F1619   1.355       .  S
C1615      C1616   1.421       .  A
C1616      F1617   1.354       .  S
O1621     Zr1633   2.442   1_655  S
O1621      C1623   1.287       .  A
O1622      C1623   1.288       .  A
C1623      C1855   1.471       .  S
O1624      C1626   1.288       .  A
O1625     Zr1930   2.430       .  S
O1625      C1626   1.288       .  A
C1626      C1825   1.492       .  S
O1627     Zr1636   2.449   1_655  S
O1627      C1629   1.289       .  A
O1628      C1629   1.286       .  A
C1629      C1882   1.469       .  S
O1630      C1632   1.290       .  A
O1631     Zr1660   2.426       .  S
O1631      C1632   1.287       .  A
C1632      C1875   1.493       .  S
Zr1633     O1634   2.434       .  S
Zr1633     O1909   2.378   1_455  S
O1634      H1677   0.990   1_455  S
O1635      H1680   0.990       .  S
Zr1636     O1637   2.435       .  S
Zr1636     O1639   2.374   1_454  S
O1637      H1681   0.990       .  S
O1639     Zr1903   2.378   1_655  S
O1640     Zr1660   2.389       .  S
O1640      H1667   0.966       .  S
O1641     Zr1653   2.433       .  S
O1641      C1643   1.287       .  A
O1642      C1643   1.288       .  A
C1643      C1812   1.486       .  S
O1644      C1646   1.284       .  A
O1645     Zr1659   2.428   1_554  S
O1645      C1646   1.287       .  A
C1646      C1832   1.487       .  S
O1647     Zr1656   2.420       .  S
O1647      C1649   1.284       .  A
O1648      C1649   1.288       .  A
C1649      C1845   1.488       .  S
O1650      C1652   1.289       .  A
O1651     Zr1929   2.425       .  S
O1651      C1652   1.285       .  A
C1652      C1862   1.476       .  S
Zr1653     O1661   2.366       .  S
Zr1656     O1657   2.434       .  S
Zr1656     O1931   2.363       .  S
Zr1659     O1921   2.425       .  S
Zr1659     O1662   2.381       .  S
Zr1659     O1664   2.384   1_556  S
Zr1659     O1935   2.387       .  S
Zr1660     O1895   2.430       .  S
Zr1660     O1663   2.385       .  S
Zr1660     O1936   2.385       .  S
O1661     Zr1926   2.363       .  S
O1661      H1669   0.966       .  S
O1664      H1668   0.966       .  S
O1665     Zr1929   2.387       .  S
O1665      H1670   0.966       .  S
O1666     Zr1930   2.385       .  S
C1683      C1782   1.582       .  S
C1683      C1792   1.585       .  S
C1683      C1802   1.613       .  S
C1683      C1815   1.563       .  S
C1684      C1762   1.600       .  S
C1684      C1772   1.595       .  S
C1684      C1805   1.599       .  S
C1684      C1872   1.561       .  S
C1685      C1742   1.597       .  S
C1685      C1752   1.591       .  S
C1685      C1765   1.598       .  S
C1685      C1822   1.560       .  S
C1686      C1732   1.593       .  S
C1686      C1745   1.594       .  S
C1686      C1785   1.598       .  S
C1686      C1842   1.559       .  S
C1687      C1715   1.577       .  S
C1687      C1722   1.576       .  S
C1687      C1795   1.609       .  S
C1687      C1865   1.580       .  S
C1688      C1702   1.571       .  S
C1688      C1712   1.586       .  S
C1688      C1735   1.602       .  S
C1688      C1835   1.558       .  S
C1689      C1692   1.605       .  S
C1689      C1705   1.578       .  S
C1689      C1755   1.582       .  S
C1689      C1885   1.562       .  S
C1690      C1695   1.594       .  S
C1690      C1725   1.576       .  S
C1690      C1775   1.587       .  S
C1690      C1852   1.559       .  S
C1691      C1692   1.431       .  A
C1691      C1696   1.438       .  A
C1691      F1698   1.356       .  S
C1692      C1693   1.409       .  A
C1693      C1694   1.376       .  A
C1693      F1700   1.332       .  S
C1694      C1695   1.402       .  A
C1694      F1699   1.341       .  S
C1695      C1696   1.427       .  A
C1696      F1697   1.355       .  S
C1701      C1702   1.407       .  A
C1701      C1706   1.366       .  A
C1701      F1708   1.352       .  S
C1702      C1703   1.426       .  A
C1703      C1704   1.419       .  A
C1703      F1710   1.351       .  S
C1704      C1705   1.430       .  A
C1704      F1709   1.357       .  S
C1705      C1706   1.410       .  A
C1706      F1707   1.344       .  S
C1711      C1712   1.414       .  A
C1711      C1716   1.410       .  A
C1711      F1718   1.359       .  S
C1712      C1713   1.423       .  A
C1713      C1714   1.379       .  A
C1713      F1720   1.351       .  S
C1714      C1715   1.418       .  A
C1714      F1719   1.345       .  S
C1715      C1716   1.431       .  A
C1716      F1717   1.358       .  S
C1721      C1722   1.413       .  A
C1721      C1726   1.376       .  A
C1721      F1728   1.341       .  S
C1722      C1723   1.422       .  A
C1723      C1724   1.413       .  A
C1723      F1730   1.357       .  S
C1724      C1725   1.423       .  A
C1724      F1729   1.357       .  S
C1725      C1726   1.414       .  A
C1726      F1727   1.344       .  S
C1731      C1732   1.420       .  A
C1731      C1736   1.400       .  A
C1731      F1738   1.343       .  S
C1732      C1733   1.422       .  A
C1733      C1734   1.411       .  A
C1733      F1740   1.357       .  S
C1734      C1735   1.428       .  A
C1734      F1739   1.359       .  S
C1735      C1736   1.414       .  A
C1736      F1737   1.347       .  S
C1741      C1742   1.427       .  A
C1741      C1746   1.427       .  A
C1741      F1748   1.355       .  S
C1742      C1743   1.409       .  A
C1743      C1744   1.393       .  A
C1743      F1750   1.345       .  S
C1744      C1745   1.409       .  A
C1744      F1749   1.349       .  S
C1745      C1746   1.425       .  A
C1746      F1747   1.355       .  S
C1751      C1752   1.424       .  A
C1751      C1756   1.415       .  A
C1751      F1758   1.357       .  S
C1752      C1753   1.420       .  A
C1753      C1754   1.399       .  A
C1753      F1760   1.335       .  S
C1754      C1755   1.406       .  A
C1754      F1759   1.354       .  S
C1755      C1756   1.420       .  A
C1756      F1757   1.352       .  S
C1761      C1762   1.409       .  A
C1761      C1766   1.387       .  A
C1761      F1768   1.343       .  S
C1762      C1763   1.422       .  A
C1763      C1764   1.433       .  A
C1763      F1770   1.358       .  S
C1764      C1765   1.423       .  A
C1764      F1769   1.358       .  S
C1765      C1766   1.411       .  A
C1766      F1767   1.344       .  S
C1771      C1772   1.425       .  A
C1771      C1776   1.422       .  A
C1771      F1778   1.357       .  S
C1772      C1773   1.419       .  A
C1773      C1774   1.399       .  A
C1773      F1780   1.337       .  S
C1774      C1775   1.408       .  A
C1774      F1779   1.354       .  S
C1775      C1776   1.421       .  A
C1776      F1777   1.355       .  S
C1781      C1782   1.429       .  A
C1781      C1786   1.427       .  A
C1781      F1788   1.355       .  S
C1782      C1783   1.400       .  A
C1783      C1784   1.390       .  A
C1783      F1790   1.342       .  S
C1784      C1785   1.415       .  A
C1784      F1789   1.345       .  S
C1785      C1786   1.418       .  A
C1786      F1787   1.358       .  S
C1791      C1792   1.423       .  A
C1791      C1796   1.426       .  A
C1791      F1798   1.357       .  S
C1792      C1793   1.408       .  A
C1793      C1794   1.378       .  A
C1793      F1800   1.345       .  S
C1794      C1795   1.432       .  A
C1794      F1799   1.352       .  S
C1795      C1796   1.433       .  A
C1796      F1797   1.348       .  S
C1801      C1802   1.420       .  A
C1801      C1806   1.394       .  A
C1801      F1808   1.340       .  S
C1802      C1803   1.431       .  A
C1803      C1804   1.434       .  A
C1803      F1810   1.356       .  S
C1804      C1805   1.426       .  A
C1804      F1809   1.356       .  S
C1805      C1806   1.403       .  A
C1806      F1807   1.349       .  S
C1811      C1812   1.403       .  A
C1811      C1816   1.393       .  A
C1811      F1818   1.358       .  S
C1812      C1813   1.402       .  A
C1813      C1814   1.403       .  A
C1813      F1820   1.357       .  S
C1814      C1815   1.427       .  A
C1814      F1819   1.355       .  S
C1815      C1816   1.420       .  A
C1816      F1817   1.353       .  S
C1821      C1822   1.425       .  A
C1821      C1826   1.403       .  A
C1821      F1828   1.356       .  S
C1822      C1823   1.417       .  A
C1823      C1824   1.393       .  A
C1823      F1830   1.351       .  S
C1824      C1825   1.405       .  A
C1824      F1829   1.358       .  S
C1825      C1826   1.407       .  A
C1826      F1827   1.358       .  S
C1831      C1832   1.407       .  A
C1831      C1836   1.390       .  A
C1831      F1838   1.359       .  S
C1832      C1833   1.404       .  A
C1833      C1834   1.398       .  A
C1833      F1840   1.358       .  S
C1834      C1835   1.425       .  A
C1834      F1839   1.353       .  S
C1835      C1836   1.420       .  A
C1836      F1837   1.358       .  S
C1841      C1842   1.416       .  A
C1841      C1846   1.391       .  A
C1841      F1848   1.351       .  S
C1842      C1843   1.429       .  A
C1843      C1844   1.401       .  A
C1843      F1850   1.355       .  S
C1844      C1845   1.403       .  A
C1844      F1849   1.358       .  S
C1845      C1846   1.407       .  A
C1846      F1847   1.359       .  S
C1851      C1852   1.421       .  A
C1851      C1856   1.405       .  A
C1851      F1858   1.355       .  S
C1852      C1853   1.427       .  A
C1853      C1854   1.394       .  A
C1853      F1860   1.356       .  S
C1854      C1855   1.393       .  A
C1854      F1859   1.356       .  S
C1855      C1856   1.400       .  A
C1856      F1857   1.358       .  S
C1861      C1862   1.401       .  A
C1861      C1866   1.408       .  A
C1861      F1868   1.358       .  S
C1862      C1863   1.392       .  A
C1863      C1864   1.388       .  A
C1863      F1870   1.360       .  S
C1864      C1865   1.435       .  A
C1864      F1869   1.355       .  S
C1865      C1866   1.426       .  A
C1866      F1867   1.358       .  S
C1871      C1872   1.425       .  A
C1871      C1876   1.403       .  A
C1871      F1878   1.355       .  S
C1872      C1873   1.420       .  A
C1873      C1874   1.395       .  A
C1873      F1880   1.350       .  S
C1874      C1875   1.403       .  A
C1874      F1879   1.359       .  S
C1875      C1876   1.407       .  A
C1876      F1877   1.357       .  S
C1881      C1882   1.399       .  A
C1881      C1886   1.404       .  A
C1881      F1888   1.358       .  S
C1882      C1883   1.392       .  A
C1883      C1884   1.394       .  A
C1883      F1890   1.356       .  S
C1884      C1885   1.427       .  A
C1884      F1889   1.355       .  S
C1885      C1886   1.421       .  A
C1886      F1887   1.354       .  S
O1891     Zr1903   2.442   1_655  S
O1891      C1893   1.287       .  A
O1892      C1893   1.288       .  A
C1893      C2125   1.471       .  S
O1894      C1896   1.288       .  A
O1895      C1896   1.288       .  A
C1896      C2095   1.492       .  S
O1897     Zr1906   2.449   1_655  S
O1897      C1899   1.289       .  A
O1898      C1899   1.286       .  A
C1899      C2152   1.469       .  S
O1900      C1902   1.290       .  A
O1901     Zr1930   2.426   1_556  S
O1901      C1902   1.287       .  A
C1902      C2145   1.493       .  S
Zr1903     O1904   2.434       .  S
O1904      H1947   0.990   1_455  S
O1905      H1950   0.990       .  S
Zr1906     O1907   2.435       .  S
Zr1906     O1909   2.374   1_455  S
O1907      H1951   0.990       .  S
O1910     Zr1930   2.389       .  S
O1910      H1937   0.966       .  S
O1911     Zr1923   2.433       .  S
O1911      C1913   1.287       .  A
O1912      C1913   1.288       .  A
C1913      C2082   1.486       .  S
O1914      C1916   1.284       .  A
O1915     Zr1929   2.428       .  S
O1915      C1916   1.287       .  A
C1916      C2102   1.487       .  S
O1917     Zr1926   2.420       .  S
O1917      C1919   1.284       .  A
O1918      C1919   1.288       .  A
C1919      C2115   1.488       .  S
O1920      C1922   1.289       .  A
O1921      C1922   1.285       .  A
C1922      C2132   1.476       .  S
Zr1923     O1931   2.366   1_556  S
Zr1926     O1927   2.434       .  S
Zr1929     O1932   2.381       .  S
Zr1929     O1934   2.384       .  S
Zr1930     O1933   2.385   1_554  S
O1931      H1939   0.966       .  S
O1934      H1938   0.966       .  S
O1935      H1940   0.966       .  S
C1953      C2052   1.582       .  S
C1953      C2062   1.585       .  S
C1953      C2072   1.613       .  S
C1953      C2085   1.563       .  S
C1954      C2032   1.600       .  S
C1954      C2042   1.595       .  S
C1954      C2075   1.599       .  S
C1954      C2142   1.561       .  S
C1955      C2012   1.597       .  S
C1955      C2022   1.591       .  S
C1955      C2035   1.598       .  S
C1955      C2092   1.560       .  S
C1956      C2002   1.593       .  S
C1956      C2015   1.594       .  S
C1956      C2055   1.598       .  S
C1956      C2112   1.559       .  S
C1957      C1985   1.577       .  S
C1957      C1992   1.576       .  S
C1957      C2065   1.609       .  S
C1957      C2135   1.580       .  S
C1958      C1972   1.571       .  S
C1958      C1982   1.586       .  S
C1958      C2005   1.602       .  S
C1958      C2105   1.558       .  S
C1959      C1962   1.605       .  S
C1959      C1975   1.578       .  S
C1959      C2025   1.582       .  S
C1959      C2155   1.562       .  S
C1960      C1965   1.594       .  S
C1960      C1995   1.576       .  S
C1960      C2045   1.587       .  S
C1960      C2122   1.559       .  S
C1961      C1962   1.431       .  A
C1961      C1966   1.438       .  A
C1961      F1968   1.356       .  S
C1962      C1963   1.409       .  A
C1963      C1964   1.376       .  A
C1963      F1970   1.332       .  S
C1964      C1965   1.402       .  A
C1964      F1969   1.341       .  S
C1965      C1966   1.427       .  A
C1966      F1967   1.355       .  S
C1971      C1972   1.407       .  A
C1971      C1976   1.366       .  A
C1971      F1978   1.352       .  S
C1972      C1973   1.426       .  A
C1973      C1974   1.419       .  A
C1973      F1980   1.351       .  S
C1974      C1975   1.430       .  A
C1974      F1979   1.357       .  S
C1975      C1976   1.410       .  A
C1976      F1977   1.344       .  S
C1981      C1982   1.414       .  A
C1981      C1986   1.410       .  A
C1981      F1988   1.359       .  S
C1982      C1983   1.423       .  A
C1983      C1984   1.379       .  A
C1983      F1990   1.351       .  S
C1984      C1985   1.418       .  A
C1984      F1989   1.345       .  S
C1985      C1986   1.431       .  A
C1986      F1987   1.358       .  S
C1991      C1992   1.413       .  A
C1991      C1996   1.376       .  A
C1991      F1998   1.341       .  S
C1992      C1993   1.422       .  A
C1993      C1994   1.413       .  A
C1993      F2000   1.357       .  S
C1994      C1995   1.423       .  A
C1994      F1999   1.357       .  S
C1995      C1996   1.414       .  A
C1996      F1997   1.344       .  S
C2001      C2002   1.420       .  A
C2001      C2006   1.400       .  A
C2001      F2008   1.343       .  S
C2002      C2003   1.422       .  A
C2003      C2004   1.411       .  A
C2003      F2010   1.357       .  S
C2004      C2005   1.428       .  A
C2004      F2009   1.359       .  S
C2005      C2006   1.414       .  A
C2006      F2007   1.347       .  S
C2011      C2012   1.427       .  A
C2011      C2016   1.427       .  A
C2011      F2018   1.355       .  S
C2012      C2013   1.409       .  A
C2013      C2014   1.393       .  A
C2013      F2020   1.345       .  S
C2014      C2015   1.409       .  A
C2014      F2019   1.349       .  S
C2015      C2016   1.425       .  A
C2016      F2017   1.355       .  S
C2021      C2022   1.424       .  A
C2021      C2026   1.415       .  A
C2021      F2028   1.357       .  S
C2022      C2023   1.420       .  A
C2023      C2024   1.399       .  A
C2023      F2030   1.335       .  S
C2024      C2025   1.406       .  A
C2024      F2029   1.354       .  S
C2025      C2026   1.420       .  A
C2026      F2027   1.352       .  S
C2031      C2032   1.409       .  A
C2031      C2036   1.387       .  A
C2031      F2038   1.343       .  S
C2032      C2033   1.422       .  A
C2033      C2034   1.433       .  A
C2033      F2040   1.358       .  S
C2034      C2035   1.423       .  A
C2034      F2039   1.358       .  S
C2035      C2036   1.411       .  A
C2036      F2037   1.344       .  S
C2041      C2042   1.425       .  A
C2041      C2046   1.422       .  A
C2041      F2048   1.357       .  S
C2042      C2043   1.419       .  A
C2043      C2044   1.399       .  A
C2043      F2050   1.337       .  S
C2044      C2045   1.408       .  A
C2044      F2049   1.354       .  S
C2045      C2046   1.421       .  A
C2046      F2047   1.355       .  S
C2051      C2052   1.429       .  A
C2051      C2056   1.427       .  A
C2051      F2058   1.355       .  S
C2052      C2053   1.400       .  A
C2053      C2054   1.390       .  A
C2053      F2060   1.342       .  S
C2054      C2055   1.415       .  A
C2054      F2059   1.345       .  S
C2055      C2056   1.418       .  A
C2056      F2057   1.358       .  S
C2061      C2062   1.423       .  A
C2061      C2066   1.426       .  A
C2061      F2068   1.357       .  S
C2062      C2063   1.408       .  A
C2063      C2064   1.378       .  A
C2063      F2070   1.345       .  S
C2064      C2065   1.432       .  A
C2064      F2069   1.352       .  S
C2065      C2066   1.433       .  A
C2066      F2067   1.348       .  S
C2071      C2072   1.420       .  A
C2071      C2076   1.394       .  A
C2071      F2078   1.340       .  S
C2072      C2073   1.431       .  A
C2073      C2074   1.434       .  A
C2073      F2080   1.356       .  S
C2074      C2075   1.426       .  A
C2074      F2079   1.356       .  S
C2075      C2076   1.403       .  A
C2076      F2077   1.349       .  S
C2081      C2082   1.403       .  A
C2081      C2086   1.393       .  A
C2081      F2088   1.358       .  S
C2082      C2083   1.402       .  A
C2083      C2084   1.403       .  A
C2083      F2090   1.357       .  S
C2084      C2085   1.427       .  A
C2084      F2089   1.355       .  S
C2085      C2086   1.420       .  A
C2086      F2087   1.353       .  S
C2091      C2092   1.425       .  A
C2091      C2096   1.403       .  A
C2091      F2098   1.356       .  S
C2092      C2093   1.417       .  A
C2093      C2094   1.393       .  A
C2093      F2100   1.351       .  S
C2094      C2095   1.405       .  A
C2094      F2099   1.358       .  S
C2095      C2096   1.407       .  A
C2096      F2097   1.358       .  S
C2101      C2102   1.407       .  A
C2101      C2106   1.390       .  A
C2101      F2108   1.359       .  S
C2102      C2103   1.404       .  A
C2103      C2104   1.398       .  A
C2103      F2110   1.358       .  S
C2104      C2105   1.425       .  A
C2104      F2109   1.353       .  S
C2105      C2106   1.420       .  A
C2106      F2107   1.358       .  S
C2111      C2112   1.416       .  A
C2111      C2116   1.391       .  A
C2111      F2118   1.351       .  S
C2112      C2113   1.429       .  A
C2113      C2114   1.401       .  A
C2113      F2120   1.355       .  S
C2114      C2115   1.403       .  A
C2114      F2119   1.358       .  S
C2115      C2116   1.407       .  A
C2116      F2117   1.359       .  S
C2121      C2122   1.421       .  A
C2121      C2126   1.405       .  A
C2121      F2128   1.355       .  S
C2122      C2123   1.427       .  A
C2123      C2124   1.394       .  A
C2123      F2130   1.356       .  S
C2124      C2125   1.393       .  A
C2124      F2129   1.356       .  S
C2125      C2126   1.400       .  A
C2126      F2127   1.358       .  S
C2131      C2132   1.401       .  A
C2131      C2136   1.408       .  A
C2131      F2138   1.358       .  S
C2132      C2133   1.392       .  A
C2133      C2134   1.388       .  A
C2133      F2140   1.360       .  S
C2134      C2135   1.435       .  A
C2134      F2139   1.355       .  S
C2135      C2136   1.426       .  A
C2136      F2137   1.358       .  S
C2141      C2142   1.425       .  A
C2141      C2146   1.403       .  A
C2141      F2148   1.355       .  S
C2142      C2143   1.420       .  A
C2143      C2144   1.395       .  A
C2143      F2150   1.350       .  S
C2144      C2145   1.403       .  A
C2144      F2149   1.359       .  S
C2145      C2146   1.407       .  A
C2146      F2147   1.357       .  S
C2151      C2152   1.399       .  A
C2151      C2156   1.404       .  A
C2151      F2158   1.358       .  S
C2152      C2153   1.392       .  A
C2153      C2154   1.394       .  A
C2153      F2160   1.356       .  S
C2154      C2155   1.427       .  A
C2154      F2159   1.355       .  S
C2155      C2156   1.421       .  A
C2156      F2157   1.354       .  S
