geometry optimzed in LAMMPS
_audit_creation_date              2020-12-01 
_audit_creation_method            'lammps2cif' 
_symmetry_space_group_name_H-M    'P1' 
_symmetry_Int_Tables_number       1 
_symmetry_cell_setting            triclinic 
loop_ 
_symmetry_equiv_pos_as_xyz 
  x,y,z 
_cell_length_a                    47.37349788 
_cell_length_b                    47.29344887156935 
_cell_length_c                    44.89903779143829 
_cell_angle_alpha                 88.86953690593724 
_cell_angle_beta                  89.17949102189134 
_cell_angle_gamma                 125.42582677506203 
loop_ 
_atom_site_label 
_atom_site_type_symbol 
_atom_site_fract_x 
_atom_site_fract_y 
_atom_site_fract_z 
_atom_site_charge 
C1          C  0.33776407  0.16943784  0.87650638    -0.00400
C2          C  0.34586301  0.18134855  0.63058658    -0.00400
C3          C  0.17273174  0.35794093  0.12898961    -0.00400
C4          C  0.15956722  0.35034042  0.37502828    -0.00400
O5          O  0.44383978  0.43816017  0.96322478    -0.78800
O6          O  0.01344240  0.07484870  0.03538577    -0.63500
O7          O  0.49349127  0.00882994  0.97655664    -1.10100
C8          C  0.04467924  0.47418230  0.04466294     1.08100
O9          O  0.06625862  0.08870120  0.04258449    -0.76700
O10         O  0.08831776  0.05648285  0.01138816    -0.64300
Ni11       Ni  0.44870592  0.48154440  0.95929403     1.34900
C12         C  0.08258752  0.04085281  0.98721255     0.86800
O13         O  0.48784047  0.06449864  0.98133336    -0.77300
O14         O  0.44862427  0.02175692  0.95233586    -0.87500
C15         C  0.04393156  0.09538160  0.04447341     0.86400
O16         O  0.42186791  0.46990241  0.99531580    -0.65700
O17         O  0.06053688  0.00471967  0.05443120    -0.85000
C18         C  0.42772930  0.48593729  0.01927381     0.87200
C19         C  0.46488817  0.05252094  0.96165477     1.08800
H20         H  0.99973330  0.00530438  0.04556527     0.40600
O21         O  0.01643396  0.01808519  0.02935020    -1.07700
O22         O  0.05333799  0.01363116  0.98079055    -0.64300
Ni23       Ni  0.00786278  0.48535143  0.00005439     1.26300
O24         O  0.45683964  0.01360569  0.02519249    -0.64600
O25         O  0.02230317  0.46253810  0.02449291    -0.76900
C26         C  0.46630047  0.43165184  0.96134472     0.86600
O27         O  0.49677086  0.45228257  0.97044004    -0.64000
Ni28       Ni  0.06096049  0.04514902  0.04702663     1.27400
Ni29       Ni  0.00221838  0.04167819  0.00581278     1.26100
H30         H  0.01005480  0.02151432  0.96022895     0.41100
O31         O  0.08114443  0.07534325  0.54025784    -0.78800
O32         O  0.44120600  0.00940049  0.47327246    -0.63500
O33         O  0.00961291  0.02850290  0.52945276    -1.10100
C34         C  0.03712665  0.47277442  0.45933986     1.08100
O35         O  0.42524157  0.45563536  0.46705692    -0.76700
O36         O  0.45781284  0.43150665  0.49436449    -0.64300
Ni37       Ni  0.03972125  0.07386954  0.54503535     1.34900
C38         C  0.47249119  0.43701514  0.51907777     0.84800
O39         O  0.45582319  0.03683412  0.52691538    -0.77300
O40         O  0.00163478  0.07721378  0.55274697    -0.87500
C41         C  0.41946570  0.47866660  0.46505455     0.86400
O42         O  0.05107981  0.09937929  0.50815640    -0.65700
O43         O  0.00709581  0.45943450  0.44914912    -0.85000
C44         C  0.03343549  0.09395074  0.48528309     0.87200
C45         C  0.47014462  0.06114506  0.54537592     1.08800
H46         H  0.00973540  0.02073181  0.46088541     0.40600
O47         O  0.49684541  0.00412913  0.47718099    -1.07700
O48         O  0.99963995  0.46615641  0.52589437    -0.64300
Ni49       Ni  0.02978460  0.01102229  0.50564724     1.26300
O50         O  0.00416837  0.06554211  0.48100760    -0.64600
O51         O  0.04932295  0.49339809  0.48089607    -0.76900
C52         C  0.08554178  0.05135995  0.54292874     0.86600
O53         O  0.06332177  0.02081919  0.53453547    -0.64000
Ni54       Ni  0.46776743  0.45981803  0.45945923     1.27400
Ni55       Ni  0.47583000  0.02043377  0.50146651     1.26100
H56         H  0.99732566  0.01282642  0.54642105     0.41100
C57         C  0.25846914  0.40588432  0.40713657     0.19100
C58         C  0.28534809  0.40778925  0.39145412    -0.10000
C59         C  0.31838975  0.42515136  0.40335159    -0.10900
C60         C  0.32483732  0.44079510  0.43100099     0.20700
C61         C  0.29804569  0.43920120  0.44655361    -0.12900
C62         C  0.26497934  0.42183032  0.43464331    -0.11200
C63         C  0.35853216  0.45716644  0.44378319     0.01600
C64         C  0.38661572  0.46867283  0.45393235    -0.31200
C65         C  0.22408650  0.38686012  0.39538764     0.03000
C66         C  0.19508850  0.37042266  0.38595575    -0.32900
H67         H  0.28067286  0.39554169  0.37020556     0.14000
H68         H  0.33880054  0.42603096  0.39115511     0.13900
H69         H  0.30260262  0.45102062  0.46799998     0.13700
H70         H  0.24441945  0.42050748  0.44701836     0.12800
C71         C  0.11549839  0.39918211  0.40362922     0.19100
C72         C  0.12065120  0.41024945  0.43302450    -0.10000
C73         C  0.10695951  0.42779996  0.44342190    -0.10900
C74         C  0.08806649  0.43449144  0.42448697     0.20700
C75         C  0.08305005  0.42360444  0.39500839    -0.12900
C76         C  0.09676741  0.40603363  0.38459448    -0.11200
C77         C  0.07256971  0.45106711  0.43578543     0.01600
C78         C  0.05778850  0.46270987  0.44618110    -0.31200
C79         C  0.12959960  0.38097933  0.39313393     0.03000
C80         C  0.14238332  0.36645178  0.38489759    -0.32900
H81         H  0.13511272  0.40516424  0.44794584     0.14000
H82         H  0.11084243  0.43587562  0.46629474     0.13900
H83         H  0.06831199  0.42842214  0.38018983     0.13700
H84         H  0.09263624  0.39766405  0.36180602     0.12800
C85         C  0.07592814  0.18231978  0.43377805     0.19100
C86         C  0.11128301  0.20227205  0.42560362    -0.10000
C87         C  0.12748573  0.23581587  0.41305098    -0.10900
C88         C  0.10849063  0.24971558  0.40862692     0.20700
C89         C  0.07305147  0.22961705  0.41647507    -0.12900
C90         C  0.05684705  0.19607097  0.42902623    -0.11200
C91         C  0.12553226  0.28477565  0.39665385     0.01600
C92         C  0.14044094  0.31431824  0.38691724    -0.31200
C93         C  0.05980578  0.14879015  0.44879084     0.03000
C94         C  0.04707125  0.12234550  0.46380867    -0.32900
H95         H  0.12643535  0.19212466  0.42936590     0.14000
H96         H  0.15489944  0.25106192  0.40714442     0.13900
H97         H  0.05805543  0.24002562  0.41323901     0.13700
H98         H  0.02958576  0.18108314  0.43545866     0.12800
C99         C  0.16381722  0.35222716  0.28326216     0.19100
C100        C  0.19588478  0.36756492  0.26821199    -0.10000
C101        C  0.19783368  0.36885038  0.23703012    -0.10900
C102        C  0.16772131  0.35479569  0.22071081     0.20700
C103        C  0.13564101  0.33947435  0.23574534    -0.12900
C104        C  0.13369100  0.33818818  0.26694056    -0.11200
C105        C  0.16973445  0.35600887  0.18860279     0.01600
C106        C  0.17128077  0.35692025  0.16169753    -0.31200
C107        C  0.16192993  0.35109617  0.31538916     0.03000
C108        C  0.16074854  0.35055473  0.34230764    -0.32900
H109        H  0.21935443  0.37853340  0.28057543     0.14000
H110        H  0.22277830  0.38076903  0.22566213     0.13900
H111        H  0.11218213  0.32853093  0.22336911     0.13700
H112        H  0.10875183  0.32629151  0.27831075     0.12800
C113        C  0.12030119  0.25855089  0.09852317     0.19100
C114        C  0.12886062  0.23612726  0.10818364    -0.10000
C115        C  0.11093025  0.20240245  0.09769471    -0.10900
C116        C  0.08431363  0.19087233  0.07748715     0.20700
C117        C  0.07569381  0.21327055  0.06785836    -0.12900
C118        C  0.09363651  0.24702421  0.07836245    -0.11200
C119        C  0.06683528  0.15651070  0.06596842     0.01600
C120        C  0.05460416  0.12816036  0.05615890    -0.31200
C121        C  0.13887651  0.29331989  0.10928140     0.03000
C122        C  0.15433288  0.32244519  0.11829964    -0.32900
H123        H  0.14944043  0.24474238  0.12372995     0.14000
H124        H  0.11796712  0.18540104  0.10518331     0.13900
H125        H  0.05530508  0.20473443  0.05212538     0.13700
H126        H  0.08681101  0.26414270  0.07070734     0.12800
C127        C  0.34020119  0.44410541  0.07104366     0.19100
C128        C  0.32664517  0.46324785  0.07632968    -0.10000
C129        C  0.29338115  0.44690627  0.08925552    -0.10900
C130        C  0.27351885  0.41134414  0.09690768     0.20700
C131        C  0.28730219  0.39236471  0.09202182    -0.12900
C132        C  0.32052295  0.40868465  0.07911611    -0.11200
C133        C  0.23862726  0.39395682  0.10884668     0.01600
C134        C  0.20900348  0.37822503  0.11816944    -0.31200
C135        C  0.37319560  0.46010595  0.05554202     0.03000
C136        C  0.39924891  0.47239155  0.04033168    -0.32900
H137        H  0.34150264  0.49059281  0.06996858     0.14000
H138        H  0.28296849  0.46183531  0.09284606     0.13900
H139        H  0.27215986  0.36484579  0.09775937     0.13700
H140        H  0.33059838  0.39355508  0.07492617     0.12800
C141        C  0.12185162  0.39883262  0.09786080     0.19100
C142        C  0.09690701  0.39731067  0.11639559    -0.10000
C143        C  0.07811891  0.40962852  0.10583092    -0.10900
C144        C  0.08415249  0.42344234  0.07665731     0.20700
C145        C  0.10910217  0.42495827  0.05814294    -0.12900
C146        C  0.12788221  0.41265829  0.06870278    -0.11200
C147        C  0.06609521  0.43762342  0.06603814     0.01600
C148        C  0.05401958  0.45237450  0.05653270    -0.31200
C149        C  0.14086152  0.38576347  0.10862176     0.03000
C150        C  0.15591269  0.37386533  0.11771730    -0.32900
H151        H  0.09203100  0.38665704  0.13898268     0.14000
H152        H  0.05910616  0.40859128  0.12042624     0.13900
H153        H  0.11418916  0.43585714  0.03562882     0.13700
H154        H  0.14709137  0.41395935  0.05417448     0.12800
C155        C  0.42017657  0.10076412  0.57934528     0.19100
C156        C  0.41745575  0.10388354  0.61006063    -0.10000
C157        C  0.40330763  0.12098680  0.62057730    -0.10900
C158        C  0.39188700  0.13509958  0.60042420     0.20700
C159        C  0.39466019  0.13199965  0.56973298    -0.12900
C160        C  0.40878587  0.11491099  0.55922829    -0.11200
C161        C  0.37687425  0.15230435  0.61115372     0.01600
C162        C  0.36345034  0.16599604  0.61990359    -0.31200
C163        C  0.43563579  0.08410675  0.56831221     0.03000
C164        C  0.45016618  0.07211315  0.55819657    -0.32900
H165        H  0.42636309  0.09323252  0.62582674     0.14000
H166        H  0.40126840  0.12319825  0.64436183     0.13900
H167        H  0.38589894  0.14277362  0.55394322     0.13700
H168        H  0.41094630  0.11284266  0.53543457     0.12800
C169        C  0.42789387  0.34839229  0.57066920     0.19100
C170        C  0.39175475  0.32648717  0.57485359    -0.10000
C171        C  0.37575818  0.29325741  0.58799600    -0.10900
C172        C  0.39577499  0.28168761  0.59700694     0.20700
C173        C  0.43193164  0.30374549  0.59315376    -0.12900
C174        C  0.44792657  0.33697258  0.58002011    -0.11200
C175        C  0.37912944  0.24694298  0.60947877     0.01600
C176        C  0.36454334  0.21750289  0.61929598    -0.31200
C177        C  0.44423870  0.38162152  0.55515555     0.03000
C178        C  0.45766471  0.40806333  0.54005361    -0.32900
H179        H  0.37592603  0.33486718  0.56753404     0.14000
H180        H  0.34778291  0.27643755  0.59077840     0.13900
H181        H  0.44770520  0.29510857  0.59994494     0.13700
H182        H  0.47584708  0.35353297  0.57671805     0.12800
C183        C  0.17953066  0.08815855  0.57730565     0.19100
C184        C  0.20724934  0.09439674  0.55946990    -0.10000
C185        C  0.24067406  0.11263431  0.57064118    -0.10900
C186        C  0.24659489  0.12480692  0.59969049     0.20700
C187        C  0.21883347  0.11827540  0.61764984    -0.12900
C188        C  0.18540153  0.10003239  0.60647767    -0.11200
C189        C  0.28120587  0.14449523  0.61081765     0.01600
C190        C  0.31035289  0.16120026  0.61982446    -0.31200
C191        C  0.14554225  0.07142548  0.56516071     0.03000
C192        C  0.11761484  0.06017991  0.55486511    -0.32900
H193        H  0.20311249  0.08559805  0.53681982     0.14000
H194        H  0.26194046  0.11756872  0.55653580     0.13900
H195        H  0.22309341  0.12759609  0.64012934     0.13700
H196        H  0.16424835  0.09561641  0.62041820     0.12800
C197        C  0.34192432  0.17601961  0.72228901     0.19100
C198        C  0.31014431  0.16033014  0.73794293    -0.10000
C199        C  0.30885888  0.15826909  0.76913530    -0.10900
C200        C  0.33934433  0.17187365  0.78480900     0.20700
C201        C  0.37106989  0.18735395  0.76914047    -0.12900
C202        C  0.37235464  0.18941446  0.73796924    -0.11200
C203        C  0.33822040  0.17040227  0.81691658     0.01600
C204        C  0.33779144  0.16975814  0.84382033    -0.31200
C205        C  0.34337088  0.17840640  0.69019501     0.03000
C206        C  0.34467079  0.18016854  0.66329187    -0.32900
H207        H  0.28643340  0.14981677  0.72605744     0.14000
H208        H  0.28417901  0.14623326  0.78101010     0.13900
H209        H  0.39480159  0.19795174  0.78101494     0.13700
H210        H  0.39705482  0.20153388  0.72610989     0.12800
C211        C  0.38983558  0.12948307  0.90680146     0.19100
C212        C  0.38407643  0.09942121  0.89497922    -0.10000
C213        C  0.40227460  0.08647920  0.90556359    -0.10900
C214        C  0.42636480  0.10355925  0.92798675     0.20700
C215        C  0.43224994  0.13371704  0.93972595    -0.12900
C216        C  0.41404478  0.14667393  0.92912722    -0.11200
C217        C  0.44376815  0.08913716  0.93971772     0.01600
C218        C  0.45553146  0.07428006  0.94970019    -0.31200
C219        C  0.37088405  0.14263667  0.89609431     0.03000
C220        C  0.35542895  0.15417016  0.88719152    -0.32900
H221        H  0.36542017  0.08591526  0.87772521     0.14000
H222        H  0.39734831  0.06300645  0.89646250     0.13900
H223        H  0.45064021  0.14700258  0.95719934     0.13700
H224        H  0.41869226  0.16994351  0.93842953     0.12800
C225        C  0.39079002  0.26915830  0.90617826     0.19100
C226        C  0.38374080  0.29237056  0.89533518    -0.10000
C227        C  0.40161030  0.32597406  0.90608027    -0.10900
C228        C  0.42665621  0.33658830  0.92771903     0.20700
C229        C  0.43386415  0.31344101  0.93844626    -0.12900
C230        C  0.41598390  0.27980961  0.92768533    -0.11200
C231        C  0.44385086  0.37075294  0.93958895     0.01600
C232        C  0.45583382  0.39897327  0.94957669    -0.31200
C233        C  0.37198492  0.23438098  0.89544309     0.03000
C234        C  0.35630048  0.20513831  0.88668584    -0.32900
H235        H  0.36430764  0.28443128  0.87873588     0.14000
H236        H  0.39568353  0.34357093  0.89771840     0.13900
H237        H  0.45303830  0.32127389  0.95527203     0.13700
H238        H  0.42163220  0.26206943  0.93625148     0.12800
C239        C  0.17128097  0.08173845  0.93733144     0.19100
C240        C  0.18130600  0.10444836  0.91254916    -0.10000
C241        C  0.21450007  0.12088969  0.89946190    -0.10900
C242        C  0.23785537  0.11474253  0.91110770     0.20700
C243        C  0.22767806  0.09169921  0.93565740    -0.12900
C244        C  0.19449868  0.07525912  0.94873349    -0.11200
C245        C  0.27256550  0.13291991  0.89851374     0.01600
C246        C  0.30191828  0.14900688  0.88844163    -0.31200
C247        C  0.13793641  0.06636707  0.95204083     0.03000
C248        C  0.11146120  0.05429440  0.96659216    -0.32900
H249        H  0.16367940  0.10981965  0.90363191     0.14000
H250        H  0.22210836  0.13872826  0.88054138     0.13900
H251        H  0.24552328  0.08681000  0.94491950     0.13700
H252        H  0.18713145  0.05790516  0.96798762     0.12800
C253        C  0.33776386  0.66943765  0.87650626    -0.00400
C254        C  0.34586358  0.68134834  0.63058642    -0.00400
C255        C  0.17273176  0.85794067  0.12898950    -0.00400
C256        C  0.15956609  0.85033963  0.37502816    -0.00400
O257        O  0.44383967  0.93816013  0.96322472    -0.78800
O258        O  0.01344198  0.57484877  0.03538512    -0.63500
O259        O  0.49349122  0.50882994  0.97655697    -1.10100
C260        C  0.04467964  0.97418248  0.04466278     1.08100
O261        O  0.06625787  0.58870096  0.04258538    -0.76700
O262        O  0.08831711  0.55648317  0.01138837    -0.64300
Ni263      Ni  0.44870602  0.98154446  0.95929362     1.34900
C264        C  0.08258715  0.54085298  0.98721290     0.86800
O265        O  0.48783960  0.56449812  0.98133463    -0.77300
O266        O  0.44862390  0.52175677  0.95233661    -0.87500
C267        C  0.04393087  0.59538152  0.04447332     0.86400
O268        O  0.42186787  0.96990287  0.99531524    -0.65700
O269        O  0.06053667  0.50471962  0.05443109    -0.85000
C270        C  0.42772917  0.98593821  0.01927296     0.87200
C271        C  0.46488749  0.55252061  0.96165586     1.08800
H272        H  0.99973265  0.50530432  0.04556531     0.40600
O273        O  0.01643344  0.51808505  0.02935031    -1.07700
O274        O  0.05333779  0.51363093  0.98079100    -0.64300
Ni275      Ni  0.00786319  0.98535172  0.00005414     1.26300
O276        O  0.45683975  0.51360475  0.02519346    -0.64600
O277        O  0.02230387  0.96253847  0.02449246    -0.76900
C278        C  0.46630024  0.93165162  0.96134503     0.86600
O279        O  0.49677061  0.95228233  0.97044042    -0.64000
Ni280      Ni  0.06095991  0.54514882  0.04702695     1.27400
Ni281      Ni  0.00221808  0.54167802  0.00581248     1.26100
H282        H  0.01005457  0.52151378  0.96022886     0.41100
O283        O  0.08114459  0.57534237  0.54025871    -0.78800
O284        O  0.44120694  0.50940096  0.47327240    -0.63500
O285        O  0.00961318  0.52850259  0.52945322    -1.10100
C286        C  0.03712711  0.97277524  0.45933961     1.08100
O287        O  0.42524070  0.95563498  0.46705652    -0.76700
O288        O  0.45781170  0.93150627  0.49436465    -0.64300
Ni289      Ni  0.03972174  0.57386933  0.54503557     1.34900
C290        C  0.47249012  0.93701472  0.51907789     0.84800
O291        O  0.45582438  0.53683482  0.52691518    -0.77300
O292        O  0.00163565  0.57721436  0.55274666    -0.87500
C293        C  0.41946488  0.97866627  0.46505425     0.86400
O294        O  0.05108070  0.59937856  0.50815627    -0.65700
O295        O  0.00709621  0.95943512  0.44914889    -0.85000
C296        C  0.03343601  0.59395021  0.48528324     0.87200
C297        C  0.47014557  0.56114510  0.54537637     1.08800
H298        H  0.00973551  0.52073156  0.46088590     0.40600
O299        O  0.49684636  0.50412961  0.47718081    -1.07700
O300        O  0.99964049  0.96615710  0.52589408    -0.64300
Ni301      Ni  0.02978453  0.51102164  0.50564764     1.26300
O302        O  0.00416854  0.56554183  0.48100813    -0.64600
O303        O  0.04932334  0.99339900  0.48089575    -0.76900
C304        C  0.08554170  0.55135888  0.54292942     0.86600
O305        O  0.06332162  0.52081823  0.53453590    -0.64000
Ni306      Ni  0.46776659  0.95981756  0.45945927     1.27400
Ni307      Ni  0.47583106  0.52043434  0.50146633     1.26100
H308        H  0.99732608  0.51282632  0.54642151     0.41100
C309        C  0.25846848  0.90588368  0.40713572     0.19100
C310        C  0.28534649  0.90778554  0.39145471    -0.10000
C311        C  0.31838826  0.92514788  0.40335201    -0.10900
C312        C  0.32483688  0.94079492  0.43099988     0.20700
C313        C  0.29804621  0.93920408  0.44655109    -0.12900
C314        C  0.26497981  0.92183299  0.43464087    -0.11200
C315        C  0.35853167  0.95716632  0.44378222     0.01600
C316        C  0.38661509  0.96867267  0.45393168    -0.31200
C317        C  0.22408566  0.88685928  0.39538701     0.03000
C318        C  0.19508752  0.87042179  0.38595534    -0.32900
H319        H  0.28067044  0.89553540  0.37020736     0.14000
H320        H  0.33879827  0.92602503  0.39115663     0.13900
H321        H  0.30260388  0.95102596  0.46799634     0.13700
H322        H  0.24442064  0.92051254  0.44701488     0.12800
C323        C  0.11549796  0.89918206  0.40362900     0.19100
C324        C  0.12065046  0.91024903  0.43302436    -0.10000
C325        C  0.10695910  0.92779985  0.44342176    -0.10900
C326        C  0.08806665  0.93449194  0.42448669     0.20700
C327        C  0.08305064  0.92360545  0.39500792    -0.12900
C328        C  0.09676770  0.90603434  0.38459410    -0.11200
C329        C  0.07257005  0.95106780  0.43578517     0.01600
C330        C  0.05778905  0.96271075  0.44618090    -0.31200
C331        C  0.12959894  0.88097905  0.39313375     0.03000
C332        C  0.14238247  0.86645128  0.38489752    -0.32900
H333        H  0.13511152  0.90516331  0.44794580     0.14000
H334        H  0.11084180  0.93587522  0.46629467     0.13900
H335        H  0.06831310  0.92842369  0.38018919     0.13700
H336        H  0.09263681  0.89766508  0.36180554     0.12800
C337        C  0.07592816  0.68231918  0.43377813     0.19100
C338        C  0.11128366  0.70227286  0.42560578    -0.10000
C339        C  0.12748597  0.73581656  0.41305310    -0.10900
C340        C  0.10848996  0.74971493  0.40862710     0.20700
C341        C  0.07305022  0.72961505  0.41647324    -0.12900
C342        C  0.05684607  0.69606893  0.42902432    -0.11200
C343        C  0.12553121  0.78477495  0.39665403     0.01600
C344        C  0.14043978  0.81431750  0.38691731    -0.31200
C345        C  0.05980607  0.64878955  0.44879090     0.03000
C346        C  0.04707174  0.62234495  0.46380878    -0.32900
H347        H  0.12643677  0.69212660  0.42936967     0.14000
H348        H  0.15490012  0.75106361  0.40714804     0.13900
H349        H  0.05805346  0.74002258  0.41323567     0.13700
H350        H  0.02958432  0.68108008  0.43545514     0.12800
C351        C  0.16381586  0.85222559  0.28326201     0.19100
C352        C  0.19588448  0.86756966  0.26821199    -0.10000
C353        C  0.19783366  0.86885511  0.23703015    -0.10900
C354        C  0.16772054  0.85479400  0.22071067     0.20700
C355        C  0.13563918  0.83946626  0.23574503    -0.12900
C356        C  0.13368884  0.83818017  0.26694023    -0.11200
C357        C  0.16973408  0.85600753  0.18860267     0.01600
C358        C  0.17128076  0.85691950  0.16169741    -0.31200
C359        C  0.16192835  0.85109486  0.31538900     0.03000
C360        C  0.16074704  0.85055365  0.34230751    -0.32900
H361        H  0.21935477  0.87854317  0.28057552     0.14000
H362        H  0.22277914  0.88077883  0.22566230     0.13900
H363        H  0.11217968  0.82851788  0.22336865     0.13700
H364        H  0.10874882  0.82627862  0.27831023     0.12800
C365        C  0.12030102  0.75855080  0.09852272     0.19100
C366        C  0.12885476  0.73612424  0.10818842    -0.10000
C367        C  0.11092396  0.70239931  0.09769966    -0.10900
C368        C  0.08431251  0.69087205  0.07748706     0.20700
C369        C  0.07569835  0.71327320  0.06785303    -0.12900
C370        C  0.09364147  0.74702693  0.07835700    -0.11200
C371        C  0.06683408  0.65651043  0.06596835     0.01600
C372        C  0.05460318  0.62816019  0.05615872    -0.31200
C373        C  0.13887676  0.79331986  0.10928084     0.03000
C374        C  0.15433319  0.82244510  0.11829920    -0.32900
H375        H  0.14943053  0.74473719  0.12373873     0.14000
H376        H  0.11795650  0.68539566  0.10519229     0.13900
H377        H  0.05531376  0.70473931  0.05211605     0.13700
H378        H  0.08682036  0.76414768  0.07069788     0.12800
C379        C  0.34020093  0.94410702  0.07104235     0.19100
C380        C  0.32664390  0.96324879  0.07632723    -0.10000
C381        C  0.29337994  0.94690693  0.08925327    -0.10900
C382        C  0.27351871  0.91134519  0.09690683     0.20700
C383        C  0.28730307  0.89236651  0.09202201    -0.12900
C384        C  0.32052376  0.90868669  0.07911612    -0.11200
C385        C  0.23862722  0.89395743  0.10884621     0.01600
C386        C  0.20900350  0.87822521  0.11816924    -0.31200
C387        C  0.37319532  0.96010769  0.05554073     0.03000
C388        C  0.39924870  0.97239301  0.04033059    -0.32900
H389        H  0.34150059  0.99059344  0.06996511     0.14000
H390        H  0.28296651  0.96183541  0.09284290     0.13900
H391        H  0.27216152  0.86484787  0.09776062     0.13700
H392        H  0.33059995  0.89355764  0.07492713     0.12800
C393        C  0.12185135  0.89883233  0.09786133     0.19100
C394        C  0.09690674  0.89731057  0.11639599    -0.10000
C395        C  0.07811883  0.90962856  0.10583112    -0.10900
C396        C  0.08415250  0.92344223  0.07665748     0.20700
C397        C  0.10910208  0.92495786  0.05814329    -0.12900
C398        C  0.12788203  0.91265787  0.06870329    -0.11200
C399        C  0.06609542  0.93762348  0.06603811     0.01600
C400        C  0.05401987  0.95237460  0.05653255    -0.31200
C401        C  0.14086098  0.88576289  0.10862229     0.03000
C402        C  0.15591231  0.87386482  0.11771759    -0.32900
H403        H  0.09203053  0.88665693  0.13898309     0.14000
H404        H  0.05910611  0.90859151  0.12042635     0.13900
H405        H  0.11418916  0.93585658  0.03562909     0.13700
H406        H  0.14709112  0.91395872  0.05417504     0.12800
C407        C  0.42017748  0.60076406  0.57934577     0.19100
C408        C  0.41745804  0.60388495  0.61006106    -0.10000
C409        C  0.40331006  0.62098841  0.62057757    -0.10900
C410        C  0.39188821  0.63509990  0.60042439     0.20700
C411        C  0.39466014  0.63199859  0.56973326    -0.12900
C412        C  0.40878564  0.61490973  0.55922868    -0.11200
C413        C  0.37687532  0.65230459  0.61115373     0.01600
C414        C  0.36345118  0.66599610  0.61990344    -0.31200
C415        C  0.43563668  0.58410659  0.56831287     0.03000
C416        C  0.45016709  0.57211300  0.55819725    -0.32900
H417        H  0.42636637  0.59323495  0.62582720     0.14000
H418        H  0.40127186  0.62320098  0.64436204     0.13900
H419        H  0.38589794  0.64277163  0.55394347     0.13700
H420        H  0.41094507  0.61284038  0.53543499     0.12800
C421        C  0.42789290  0.84839177  0.57066911     0.19100
C422        C  0.39175379  0.82648635  0.57485348    -0.10000
C423        C  0.37575757  0.79325662  0.58799580    -0.10900
C424        C  0.39577466  0.78168718  0.59700673     0.20700
C425        C  0.43193126  0.80374533  0.59315357    -0.12900
C426        C  0.44792591  0.83697241  0.58001999    -0.11200
C427        C  0.37912944  0.74694265  0.60947859     0.01600
C428        C  0.36454360  0.71750262  0.61929580    -0.31200
C429        C  0.44423749  0.88162107  0.55515565     0.03000
C430        C  0.45766355  0.90806291  0.54005376    -0.32900
H431        H  0.37592481  0.83486609  0.56753407     0.14000
H432        H  0.34778228  0.77643649  0.59077820     0.13900
H433        H  0.44770504  0.79510865  0.59994474     0.13700
H434        H  0.47584644  0.85353306  0.57671803     0.12800
C435        C  0.17953064  0.58815738  0.57730636     0.19100
C436        C  0.20724921  0.59439550  0.55947046    -0.10000
C437        C  0.24067405  0.61263327  0.57064155    -0.10900
C438        C  0.24659516  0.62480605  0.59969080     0.20700
C439        C  0.21883385  0.61827462  0.61765029    -0.12900
C440        C  0.18540176  0.60003144  0.60647835    -0.11200
C441        C  0.28120630  0.64449455  0.61081772     0.01600
C442        C  0.31035339  0.66119977  0.61982441    -0.31200
C443        C  0.14554209  0.57142419  0.56516154     0.03000
C444        C  0.11761469  0.56017859  0.55486587    -0.32900
H445        H  0.20311218  0.58559662  0.53682045     0.14000
H446        H  0.26194038  0.61756770  0.55653604     0.13900
H447        H  0.22309402  0.62759554  0.64012971     0.13700
H448        H  0.16424868  0.59561550  0.62041898     0.12800
C449        C  0.34192472  0.67601958  0.72228883     0.19100
C450        C  0.31014585  0.66033861  0.73794275    -0.10000
C451        C  0.30886011  0.65827757  0.76913511    -0.10900
C452        C  0.33934412  0.67187355  0.78480883     0.20700
C453        C  0.37106853  0.68734543  0.76914030    -0.12900
C454        C  0.37235358  0.68940600  0.73796907    -0.11200
C455        C  0.33821999  0.67040217  0.81691642     0.01600
C456        C  0.33779095  0.66975800  0.84382018    -0.31200
C457        C  0.34337156  0.67840643  0.69019483     0.03000
C458        C  0.34467151  0.68016844  0.66329170    -0.32900
H459        H  0.28643608  0.64983187  0.72605723     0.14000
H460        H  0.28418121  0.64624846  0.78100988     0.13900
H461        H  0.39479913  0.69793666  0.78101480     0.13700
H462        H  0.39705285  0.70151891  0.72610974     0.12800
C463        C  0.38983561  0.62948297  0.90680088     0.19100
C464        C  0.38408009  0.59942375  0.89497597    -0.10000
C465        C  0.40227812  0.58648172  0.90556071    -0.10900
C466        C  0.42636465  0.60355919  0.92798688     0.20700
C467        C  0.43224630  0.63371447  0.93972866    -0.12900
C468        C  0.41404122  0.64667135  0.92912959    -0.11200
C469        C  0.44376756  0.58913683  0.93971841     0.01600
C470        C  0.45553079  0.57427980  0.94970128    -0.31200
C471        C  0.37088385  0.64263627  0.89609364     0.03000
C472        C  0.35542869  0.65416979  0.88719107    -0.32900
H473        H  0.36542658  0.58591977  0.87771965     0.14000
H474        H  0.39735445  0.56301089  0.89645762     0.13900
H475        H  0.45063362  0.64699788  0.95720441     0.13700
H476        H  0.41868580  0.66993879  0.93843398     0.12800
C477        C  0.39078960  0.76915786  0.90617863     0.19100
C478        C  0.38373934  0.79236967  0.89533655    -0.10000
C479        C  0.40160867  0.82597308  0.90608186    -0.10900
C480        C  0.42665545  0.83658764  0.92771988     0.20700
C481        C  0.43386443  0.81344080  0.93844610    -0.12900
C482        C  0.41598437  0.77980953  0.92768487    -0.11200
C483        C  0.44385026  0.87075233  0.93958982     0.01600
C484        C  0.45583345  0.89897280  0.94957736    -0.31200
C485        C  0.37198478  0.73438068  0.89544318     0.03000
C486        C  0.35630051  0.70513809  0.88668578    -0.32900
H487        H  0.36430554  0.78443010  0.87873783     0.14000
H488        H  0.39568116  0.84356962  0.89772072     0.13900
H489        H  0.45303929  0.82127390  0.95527124     0.13700
H490        H  0.42163355  0.76206971  0.93625014     0.12800
C491        C  0.17128127  0.58173960  0.93733251     0.19100
C492        C  0.18130434  0.60444498  0.91254709    -0.10000
C493        C  0.21449836  0.62088610  0.89945973    -0.10900
C494        C  0.23785556  0.61474322  0.91110857     0.20700
C495        C  0.22768029  0.59170460  0.93566159    -0.12900
C496        C  0.19450099  0.57526474  0.94873774    -0.11200
C497        C  0.27256552  0.63292025  0.89851423     0.01600
C498        C  0.30191818  0.64900690  0.88844183    -0.31200
C499        C  0.13793644  0.56636799  0.95204148     0.03000
C500        C  0.11146100  0.55429491  0.96659259    -0.32900
H501        H  0.16367616  0.60981281  0.90362733     0.14000
H502        H  0.22210507  0.63872107  0.88053669     0.13900
H503        H  0.24552699  0.58681879  0.94492612     0.13700
H504        H  0.18713527  0.55791434  0.96799427     0.12800
C505        C  0.83776028  0.16943686  0.87650953    -0.00400
C506        C  0.84586278  0.18134985  0.63058877    -0.00400
C507        C  0.67273656  0.35794290  0.12899103    -0.00400
C508        C  0.65956814  0.35033946  0.37502995    -0.00400
O509        O  0.94383882  0.43816220  0.96322444    -0.78800
O510        O  0.51344012  0.07484903  0.03538663    -0.63500
O511        O  0.99349262  0.00883286  0.97655272    -1.10100
C512        C  0.54468121  0.47418475  0.04466899     1.08100
O513        O  0.56625563  0.08870149  0.04258909    -0.76700
O514        O  0.58831509  0.05648411  0.01139259    -0.64300
Ni515      Ni  0.94870732  0.48154734  0.95928961     1.34900
C516        C  0.58258548  0.04085212  0.98721823     0.86800
O517        O  0.98783996  0.06450003  0.98133301    -0.77300
O518        O  0.94862909  0.02176192  0.95232955    -0.87500
C519        C  0.54392871  0.09538216  0.04447537     0.86400
O520        O  0.92186788  0.46990821  0.99531017    -0.65700
O521        O  0.56053702  0.00472212  0.05443632    -0.85000
C522        C  0.92773045  0.48594064  0.01926978     0.87200
C523        C  0.96489106  0.05252464  0.96165128     1.08800
H524        H  0.49973066  0.00530478  0.04557004     0.40600
O525        O  0.51643159  0.01808469  0.02935497    -1.07700
O526        O  0.55333664  0.01362875  0.98079738    -0.64300
Ni527      Ni  0.50786197  0.48534987  0.00006017     1.26300
O528        O  0.95684219  0.01360563  0.02519129    -0.64600
O529        O  0.52230352  0.46253829  0.02450010    -0.76900
C530        C  0.96629919  0.43165372  0.96134137     0.86600
O531        O  0.99677100  0.45228530  0.97043324    -0.64000
Ni532      Ni  0.56095839  0.04514994  0.04703135     1.27400
Ni533      Ni  0.50221694  0.04167697  0.00581522     1.26100
H534        H  0.51005355  0.02151044  0.96023267     0.41100
O535        O  0.58114309  0.07533893  0.54025671    -0.78800
O536        O  0.94120974  0.00940398  0.47327046    -0.63500
O537        O  0.50961126  0.02849920  0.52945230    -1.10100
C538        C  0.53712495  0.47277238  0.45933723     1.08100
O539        O  0.92524357  0.45563748  0.46706023    -0.76700
O540        O  0.95781504  0.43150879  0.49436761    -0.64300
Ni541      Ni  0.53972034  0.07386611  0.54503423     1.34900
C542        C  0.97249361  0.43701793  0.51908081     0.84800
O543        O  0.95582541  0.03683889  0.52691322    -0.77300
O544        O  0.50163452  0.07721151  0.55274583    -0.87500
C545        C  0.91946871  0.47866924  0.46505411     0.86400
O546        O  0.55107853  0.09937514  0.50815487    -0.65700
O547        O  0.50709432  0.45943307  0.44914632    -0.85000
C548        C  0.53343221  0.09394728  0.48528307     0.87200
C549        C  0.97014548  0.06114812  0.54537546     1.08800
H550        H  0.50973268  0.02072975  0.46088491     0.40600
O551        O  0.99684811  0.00413196  0.47718197    -1.07700
O552        O  0.49963793  0.46615322  0.52589167    -0.64300
Ni553      Ni  0.52978215  0.01101849  0.50564589     1.26300
O554        O  0.50416438  0.06553891  0.48100878    -0.64600
O555        O  0.54932120  0.49339557  0.48089370    -0.76900
C556        C  0.58554038  0.05135550  0.54292701     0.86600
O557        O  0.56331980  0.02081470  0.53453383    -0.64000
Ni558      Ni  0.96776896  0.45981950  0.45946202     1.27400
Ni559      Ni  0.97583263  0.02043757  0.50146587     1.26100
H560        H  0.49732466  0.01282289  0.54642086     0.41100
C561        C  0.75847083  0.40588256  0.40713718     0.19100
C562        C  0.78534681  0.40777976  0.39145708    -0.10000
C563        C  0.81838948  0.42514327  0.40335274    -0.10900
C564        C  0.82484110  0.44079626  0.43099796     0.20700
C565        C  0.79805252  0.43921020  0.44654810    -0.12900
C566        C  0.76498517  0.42183788  0.43463962    -0.11200
C567        C  0.85853657  0.45716863  0.44377917     0.01600
C568        C  0.88661979  0.46867551  0.45392929    -0.31200
C569        C  0.72408727  0.38685763  0.39538994     0.03000
C570        C  0.69508906  0.37042043  0.38595836    -0.32900
H571        H  0.78066850  0.39552517  0.37021178     0.14000
H572        H  0.83879784  0.42601668  0.39115822     0.13900
H573        H  0.80261253  0.45103676  0.46799129     0.13700
H574        H  0.74442771  0.42052129  0.44701283     0.12800
C575        C  0.61549851  0.39918060  0.40362987     0.19100
C576        C  0.62064554  0.41024309  0.43302647    -0.10000
C577        C  0.60695309  0.42779321  0.44342293    -0.10900
C578        C  0.58806515  0.43448920  0.42448572     0.20700
C579        C  0.58305460  0.42360716  0.39500575    -0.12900
C580        C  0.59677274  0.40603674  0.38459280    -0.11200
C581        C  0.57256778  0.45106468  0.43578314     0.01600
C582        C  0.55778658  0.46270761  0.44617846    -0.31200
C583        C  0.62960044  0.38097822  0.39313556     0.03000
C584        C  0.64238453  0.36645087  0.38489977    -0.32900
H585        H  0.63510316  0.40515446  0.44794955     0.14000
H586        H  0.61083150  0.43586512  0.46629679     0.13900
H587        H  0.56832051  0.42842836  0.38018537     0.13700
H588        H  0.59264618  0.39767099  0.36180325     0.12800
C589        C  0.57592286  0.18231729  0.43377897     0.19100
C590        C  0.61127692  0.20226747  0.42560183    -0.10000
C591        C  0.62748048  0.23581119  0.41304874    -0.10900
C592        C  0.60848714  0.24971316  0.40862692     0.20700
C593        C  0.57304870  0.22961682  0.41647789    -0.12900
C594        C  0.55684337  0.19607068  0.42902947    -0.11200
C595        C  0.62553018  0.28477345  0.39665362     0.01600
C596        C  0.64044046  0.31431643  0.38691736    -0.31200
C597        C  0.55980009  0.14878744  0.44879181     0.03000
C598        C  0.54706642  0.12234256  0.46380927    -0.32900
H599        H  0.62642812  0.19211844  0.42936226     0.14000
H600        H  0.65489361  0.25105548  0.40714011     0.13900
H601        H  0.55805398  0.24002715  0.41324373     0.13700
H602        H  0.52958277  0.18108461  0.43546397     0.12800
C603        C  0.66382019  0.35223414  0.28326355     0.19100
C604        C  0.69588779  0.36757198  0.26821347    -0.10000
C605        C  0.69783684  0.36885726  0.23703163    -0.10900
C606        C  0.66772455  0.35480216  0.22071216     0.20700
C607        C  0.63564432  0.33948188  0.23574653    -0.12900
C608        C  0.63369419  0.33819605  0.26694177    -0.11200
C609        C  0.66973769  0.35601303  0.18860415     0.01600
C610        C  0.67128458  0.35692278  0.16169894    -0.31200
C611        C  0.66193252  0.35110061  0.31539062     0.03000
C612        C  0.66075062  0.35055630  0.34230921    -0.32900
H613        H  0.71935732  0.37853997  0.28057701     0.14000
H614        H  0.72278146  0.38077539  0.22566379     0.13900
H615        H  0.61218551  0.32853840  0.22337016     0.13700
H616        H  0.60875498  0.32629957  0.27831182     0.12800
C617        C  0.62030483  0.25855319  0.09852317     0.19100
C618        C  0.62886243  0.23612812  0.10818385    -0.10000
C619        C  0.61093090  0.20240329  0.09769459    -0.10900
C620        C  0.58431477  0.19087457  0.07748668     0.20700
C621        C  0.57569736  0.21327451  0.06785727    -0.12900
C622        C  0.59364129  0.24702813  0.07836155    -0.11200
C623        C  0.56683399  0.15651238  0.06596858     0.01600
C624        C  0.55460119  0.12816142  0.05615963    -0.31200
C625        C  0.63888036  0.29332184  0.10928240     0.03000
C626        C  0.65433658  0.32244695  0.11830114    -0.32900
H627        H  0.64944138  0.24474199  0.12373083     0.14000
H628        H  0.61796610  0.18540065  0.10518354     0.13900
H629        H  0.55530922  0.20473959  0.05212388     0.13700
H630        H  0.58681731  0.26414777  0.07070616     0.12800
C631        C  0.84020492  0.44410799  0.07104311     0.19100
C632        C  0.82664443  0.46324746  0.07632286    -0.10000
C633        C  0.79338090  0.44690504  0.08924970    -0.10900
C634        C  0.77352350  0.41134500  0.09690928     0.20700
C635        C  0.78731137  0.39236864  0.09202983    -0.12900
C636        C  0.82053175  0.40868948  0.07912307    -0.11200
C637        C  0.73863212  0.39395656  0.10884891     0.01600
C638        C  0.70900844  0.37822524  0.11817171    -0.31200
C639        C  0.87319827  0.46010865  0.05553983     0.03000
C640        C  0.89925068  0.47239450  0.04032826    -0.32900
H641        H  0.84149799  0.49059064  0.06995588     0.14000
H642        H  0.78296468  0.46183169  0.09283511     0.13900
H643        H  0.77217278  0.36485125  0.09777306     0.13700
H644        H  0.83061067  0.39356212  0.07493802     0.12800
C645        C  0.62186407  0.39884357  0.09786392     0.19100
C646        C  0.59689348  0.39728722  0.11638880    -0.10000
C647        C  0.57810559  0.40960580  0.10582519    -0.10900
C648        C  0.58416552  0.42345490  0.07666247     0.20700
C649        C  0.60914230  0.42500666  0.05815853    -0.12900
C650        C  0.62792210  0.41270594  0.06871727    -0.11200
C651        C  0.56610434  0.43763219  0.06604418     0.01600
C652        C  0.55402476  0.45237957  0.05653887    -0.31200
C653        C  0.64087168  0.38577101  0.10862286     0.03000
C654        C  0.65592010  0.37386963  0.11771778    -0.32900
H655        H  0.59199636  0.38660529  0.13896711     0.14000
H656        H  0.55907163  0.40854056  0.12041269     0.13900
H657        H  0.61424963  0.43593293  0.03565315     0.13700
H658        H  0.64715166  0.41403408  0.05419674     0.12800
C659        C  0.92017554  0.10076381  0.57934838     0.19100
C660        C  0.91746208  0.10388926  0.61006373    -0.10000
C661        C  0.90331432  0.12099257  0.62058144    -0.10900
C662        C  0.89188662  0.13509933  0.60042929     0.20700
C663        C  0.89465232  0.13199317  0.56973812    -0.12900
C664        C  0.90877768  0.11490459  0.55923246    -0.11200
C665        C  0.87687428  0.15230435  0.61115947     0.01600
C666        C  0.86345025  0.16599640  0.61990827    -0.31200
C667        C  0.93563514  0.08410725  0.56831392     0.03000
C668        C  0.95016606  0.07211478  0.55819685    -0.32900
H669        H  0.92637510  0.09324310  0.62582900     0.14000
H670        H  0.90128100  0.12320883  0.64436591     0.13900
H671        H  0.88588558  0.14276244  0.55394910     0.13700
H672        H  0.91093247  0.11283179  0.53543872     0.12800
C673        C  0.92789635  0.34839415  0.57067078     0.19100
C674        C  0.89175697  0.32648826  0.57485278    -0.10000
C675        C  0.87575985  0.29325805  0.58799439    -0.10900
C676        C  0.89577633  0.28168838  0.59700677     0.20700
C677        C  0.93193315  0.30374682  0.59315558    -0.12900
C678        C  0.94792869  0.33697448  0.58002292    -0.11200
C679        C  0.87913047  0.24694371  0.60947881     0.01600
C680        C  0.86454409  0.21750386  0.61929683    -0.31200
C681        C  0.94424191  0.38162420  0.55515833     0.03000
C682        C  0.95766789  0.40806635  0.54005687    -0.32900
H683        H  0.87592848  0.33486815  0.56753217     0.14000
H684        H  0.84778442  0.27643784  0.59077524     0.13900
H685        H  0.94770651  0.29511003  0.59994783     0.13700
H686        H  0.97584942  0.35353536  0.57672272     0.12800
C687        C  0.67953120  0.08815900  0.57730308     0.19100
C688        C  0.70724850  0.09438770  0.55947122    -0.10000
C689        C  0.74067328  0.11262639  0.57064290    -0.10900
C690        C  0.74659573  0.12480959  0.59968860     0.20700
C691        C  0.71883578  0.11828828  0.61764375    -0.12900
C692        C  0.68540381  0.10004423  0.60647136    -0.11200
C693        C  0.78120661  0.14449736  0.61081667     0.01600
C694        C  0.81035307  0.16120167  0.61982511    -0.31200
C695        C  0.64554234  0.07142328  0.56515781     0.03000
C696        C  0.61761415  0.06017578  0.55486262    -0.32900
H697        H  0.70311053  0.08558034  0.53682400     0.14000
H698        H  0.76193848  0.11755292  0.55654064     0.13900
H699        H  0.72309685  0.12761730  0.64012035     0.13700
H700        H  0.66425195  0.09563588  0.62040875     0.12800
C701        C  0.84192237  0.17602600  0.72229169     0.19100
C702        C  0.81014241  0.16033991  0.73794498    -0.10000
C703        C  0.80885583  0.15827849  0.76913738    -0.10900
C704        C  0.83934014  0.17187928  0.78481191     0.20700
C705        C  0.87106584  0.18735709  0.76914408    -0.12900
C706        C  0.87235174  0.18941799  0.73797277    -0.11200
C707        C  0.83821495  0.17040550  0.81691959     0.01600
C708        C  0.83778604  0.16975906  0.84382340    -0.31200
C709        C  0.84336956  0.17841140  0.69019750     0.03000
C710        C  0.84466951  0.18017157  0.66329423    -0.32900
H711        H  0.78643229  0.14982895  0.72605887     0.14000
H712        H  0.78417589  0.14624478  0.78101152     0.13900
H713        H  0.89479665  0.19795208  0.78101920     0.13700
H714        H  0.89705189  0.20153494  0.72611404     0.12800
C715        C  0.88983740  0.12948566  0.90679855     0.19100
C716        C  0.88408869  0.09943179  0.89496785    -0.10000
C717        C  0.90228833  0.08649092  0.90555116    -0.10900
C718        C  0.92636958  0.10356415  0.92798174     0.20700
C719        C  0.93224434  0.13371405  0.93972928    -0.12900
C720        C  0.91403770  0.14666976  0.92913170    -0.11200
C721        C  0.94377300  0.08914203  0.93971264     0.01600
C722        C  0.95553591  0.07428487  0.94969599    -0.31200
C723        C  0.87088412  0.14263792  0.89609275     0.03000
C724        C  0.85542757  0.15417055  0.88719177    -0.32900
H725        H  0.86543922  0.08593101  0.87770816     0.14000
H726        H  0.89736979  0.06302405  0.89644363     0.13900
H727        H  0.95062740  0.14699406  0.95720853     0.13700
H728        H  0.91867698  0.16993302  0.93844071     0.12800
C729        C  0.89078294  0.26915620  0.90618303     0.19100
C730        C  0.88372797  0.29236549  0.89534406    -0.10000
C731        C  0.90159815  0.32596957  0.90608780    -0.10900
C732        C  0.92665043  0.33658731  0.92772099     0.20700
C733        C  0.93386394  0.31344296  0.93844423    -0.12900
C734        C  0.91598300  0.27981094  0.92768469    -0.11200
C735        C  0.94384661  0.37075289  0.93958887     0.01600
C736        C  0.95583080  0.39897417  0.94957479    -0.31200
C737        C  0.87197844  0.23437884  0.89544828     0.03000
C738        C  0.85629521  0.20513652  0.88669050    -0.32900
H739        H  0.86429021  0.28442361  0.87874880     0.14000
H740        H  0.89566725  0.34356432  0.89772904     0.13900
H741        H  0.95304322  0.32127867  0.95526565     0.13700
H742        H  0.92163588  0.26207308  0.93624745     0.12800
C743        C  0.67127982  0.08173567  0.93733980     0.19100
C744        C  0.68129428  0.10442179  0.91254131    -0.10000
C745        C  0.71448806  0.12086235  0.89945376    -0.10900
C746        C  0.73785352  0.11473813  0.91111541     0.20700
C747        C  0.72768680  0.09171837  0.93568156    -0.12900
C748        C  0.69450776  0.07527907  0.94875798    -0.11200
C749        C  0.77256307  0.13291571  0.89852021     0.01600
C750        C  0.80191519  0.14900376  0.88844647    -0.31200
C751        C  0.63793488  0.06636525  0.95204786     0.03000
C752        C  0.61145927  0.05429319  0.96659828    -0.32900
H753        H  0.66365952  0.10977527  0.90361132     0.14000
H754        H  0.72208811  0.13868266  0.88052039     0.13900
H755        H  0.74553996  0.08684702  0.94495595     0.13700
H756        H  0.68714858  0.05794351  0.96802454     0.12800
C757        C  0.83776060  0.66943728  0.87650941    -0.00400
C758        C  0.84586350  0.68135059  0.63058860    -0.00400
C759        C  0.67273652  0.85794319  0.12899017    -0.00400
C760        C  0.65956790  0.85033977  0.37502912    -0.00400
O761        O  0.94383926  0.93816287  0.96322380    -0.78800
O762        O  0.51344024  0.57484844  0.03538761    -0.63500
O763        O  0.99349233  0.50883245  0.97655269    -1.10100
C764        C  0.54467995  0.97418426  0.04466967     1.08100
O765        O  0.56625634  0.58870167  0.04258804    -0.76700
O766        O  0.58831576  0.55648424  0.01139171    -0.64300
Ni767      Ni  0.94870764  0.98154798  0.95928957     1.34900
C768        C  0.58258578  0.54085224  0.98721732     0.86800
O769        O  0.98783974  0.56449967  0.98133237    -0.77300
O770        O  0.94862887  0.52176126  0.95232911    -0.87500
C771        C  0.54392918  0.59538191  0.04447552     0.86400
O772        O  0.92186823  0.96990838  0.99531023    -0.65700
O773        O  0.56053820  0.50472261  0.05443566    -0.85000
C774        C  0.92773082  0.98594044  0.01927007     0.87200
C775        C  0.96489076  0.55252405  0.96165069     1.08800
H776        H  0.49973177  0.50530476  0.04557020     0.40600
O777        O  0.51643231  0.51808468  0.02935494    -1.07700
O778        O  0.55333681  0.51362896  0.98079667    -0.64300
Ni779      Ni  0.50786148  0.98534976  0.00006037     1.26300
O780        O  0.95684185  0.51360581  0.02519091    -0.64600
O781        O  0.52230240  0.96253795  0.02450070    -0.76900
C782        C  0.96629961  0.93165434  0.96134077     0.86600
O783        O  0.99677134  0.95228573  0.97043284    -0.64000
Ni784      Ni  0.56095943  0.54515032  0.04703065     1.27400
Ni785      Ni  0.50221685  0.54167665  0.00581585     1.26100
H786        H  0.51005339  0.52151072  0.96023305     0.41100
O787        O  0.58114421  0.57533966  0.54025551    -0.78800
O788        O  0.94120995  0.50940399  0.47327112    -0.63500
O789        O  0.50961229  0.52849970  0.52945204    -1.10100
C790        C  0.53712412  0.97277182  0.45933754     1.08100
O791        O  0.92524359  0.95563744  0.46706021    -0.76700
O792        O  0.95781548  0.93150922  0.49436753    -0.64300
Ni793      Ni  0.53972137  0.57386645  0.54503415     1.34900
C794        C  0.97249423  0.93701852  0.51908066     0.84800
O795        O  0.95582576  0.53683872  0.52691389    -0.77300
O796        O  0.50163531  0.57721114  0.55274668    -0.87500
C797        C  0.91946852  0.97866903  0.46505383     0.86400
O798        O  0.55107893  0.59937616  0.50815523    -0.65700
O799        O  0.50709343  0.95943234  0.44914668    -0.85000
C800        C  0.53343293  0.59394809  0.48528319     0.87200
C801        C  0.97014623  0.56114858  0.54537553     1.08800
H802        H  0.50973363  0.52073018  0.46088469     0.40600
O803        O  0.99684813  0.50413161  0.47718239    -1.07700
O804        O  0.49963699  0.96615273  0.52589176    -0.64300
Ni805      Ni  0.52978309  0.51101893  0.50564570     1.26300
O806        O  0.50416548  0.56553942  0.48100852    -0.64600
O807        O  0.54932039  0.99339525  0.48089384    -0.76900
C808        C  0.58554136  0.55135620  0.54292655     0.86600
O809        O  0.56332077  0.52081526  0.53453364    -0.64000
Ni810      Ni  0.96776911  0.95981974  0.45946184     1.27400
Ni811      Ni  0.97583283  0.52043732  0.50146644     1.26100
H812        H  0.49732567  0.51282336  0.54642057     0.41100
C813        C  0.75847067  0.90588128  0.40713628     0.19100
C814        C  0.78533826  0.90775046  0.39146909    -0.10000
C815        C  0.81838086  0.92511360  0.40336478    -0.10900
C816        C  0.82484080  0.94079401  0.43099722     0.20700
C817        C  0.79806066  0.93923552  0.44653444    -0.12900
C818        C  0.76499332  0.92186368  0.43462587    -0.11200
C819        C  0.85853613  0.95716744  0.44377894     0.01600
C820        C  0.88661945  0.96867491  0.45392912    -0.31200
C821        C  0.72408694  0.88685738  0.39538940     0.03000
C822        C  0.69508876  0.87042062  0.38595773    -0.32900
H823        H  0.78065339  0.89547465  0.37023391     0.14000
H824        H  0.83878263  0.92596573  0.39118038     0.13900
H825        H  0.80262721  0.95108358  0.46796779     0.13700
H826        H  0.74444238  0.92056881  0.44698913     0.12800
C827        C  0.61549853  0.89918115  0.40362920     0.19100
C828        C  0.62064723  0.91024513  0.43302539    -0.10000
C829        C  0.60695478  0.92779519  0.44342208    -0.10900
C830        C  0.58806505  0.93448949  0.42448555     0.20700
C831        C  0.58305282  0.92360594  0.39500599    -0.12900
C832        C  0.59677103  0.90603565  0.38459283    -0.11200
C833        C  0.57256738  0.95106456  0.43578336     0.01600
C834        C  0.55778589  0.96270713  0.44617882    -0.31200
C835        C  0.62960031  0.88097867  0.39313471     0.03000
C836        C  0.64238429  0.86645120  0.38489891    -0.32900
H837        H  0.63510609  0.90515765  0.44794797     0.14000
H838        H  0.61083448  0.93586827  0.46629561     0.13900
H839        H  0.56831733  0.92842579  0.38018612     0.13700
H840        H  0.59264307  0.89766863  0.36180362     0.12800
C841        C  0.57592350  0.68231785  0.43377871     0.19100
C842        C  0.61127784  0.70226850  0.42560244    -0.10000
C843        C  0.62748121  0.73581211  0.41304903    -0.10900
C844        C  0.60848744  0.74971345  0.40862608     0.20700
C845        C  0.57304881  0.72961659  0.41647617    -0.12900
C846        C  0.55684366  0.69607064  0.42902805    -0.11200
C847        C  0.62553018  0.78477369  0.39665267     0.01600
C848        C  0.64044016  0.81431665  0.38691641    -0.31200
C849        C  0.55980073  0.64878814  0.44879181     0.03000
C850        C  0.54706708  0.62234337  0.46380941    -0.32900
H851        H  0.62642931  0.69211996  0.42936379     0.14000
H852        H  0.65489451  0.75105681  0.40714105     0.13900
H853        H  0.55805374  0.74002642  0.41324111     0.13700
H854        H  0.52958282  0.68108420  0.43546188     0.12800
C855        C  0.66382006  0.85223455  0.28326266     0.19100
C856        C  0.69588769  0.86757340  0.26821239    -0.10000
C857        C  0.69783651  0.86885864  0.23703054    -0.10900
C858        C  0.66772396  0.85480262  0.22071127     0.20700
C859        C  0.63564370  0.83948141  0.23574583    -0.12900
C860        C  0.63369380  0.83819548  0.26694107    -0.11200
C861        C  0.66973689  0.85601343  0.18860327     0.01600
C862        C  0.67128393  0.85692309  0.16169807    -0.31200
C863        C  0.66193256  0.85110110  0.31538976     0.03000
C864        C  0.66075058  0.85055679  0.34230835    -0.32900
H865        H  0.71935746  0.87854219  0.28057575     0.14000
H866        H  0.72278117  0.88077748  0.22566255     0.13900
H867        H  0.61218467  0.82853723  0.22336965     0.13700
H868        H  0.60875455  0.82629817  0.27831128     0.12800
C869        C  0.62030574  0.75855342  0.09852255     0.19100
C870        C  0.62886443  0.73612898  0.10818257    -0.10000
C871        C  0.61093287  0.70240397  0.09769367    -0.10900
C872        C  0.58431578  0.69087451  0.07748668     0.20700
C873        C  0.57569742  0.71327389  0.06785784    -0.12900
C874        C  0.59364118  0.74702764  0.07836184    -0.11200
C875        C  0.56683489  0.65651217  0.06596885     0.01600
C876        C  0.55460184  0.62816114  0.05615998    -0.31200
C877        C  0.63888100  0.79332211  0.10928166     0.03000
C878        C  0.65433692  0.82244725  0.11830031    -0.32900
H879        H  0.64944419  0.74474345  0.12372880     0.14000
H880        H  0.61796881  0.68540180  0.10518216     0.13900
H881        H  0.55530854  0.70473834  0.05212513     0.13700
H882        H  0.58681629  0.76414668  0.07070702     0.12800
C883        C  0.84020541  0.94410714  0.07104386     0.19100
C884        C  0.82664618  0.96324747  0.07632538    -0.10000
C885        C  0.79338260  0.94690531  0.08925218    -0.10900
C886        C  0.77352394  0.91134472  0.09690989     0.20700
C887        C  0.78731060  0.89236749  0.09202879    -0.12900
C888        C  0.82053104  0.90868807  0.07912215    -0.11200
C889        C  0.73863245  0.89395667  0.10884912     0.01600
C890        C  0.70900861  0.87822559  0.11817145    -0.31200
C891        C  0.87319873  0.96010769  0.05554046     0.03000
C892        C  0.89925110  0.97239382  0.04032873    -0.32900
H893        H  0.84150066  0.99059103  0.06995979     0.14000
H894        H  0.78296727  0.96183253  0.09283892     0.13900
H895        H  0.77217102  0.86484972  0.09777058     0.13700
H896        H  0.83060907  0.89356016  0.07493581     0.12800
C897        C  0.62186353  0.89884328  0.09786289     0.19100
C898        C  0.59689682  0.89729148  0.11638972    -0.10000
C899        C  0.57810865  0.90960996  0.10582665    -0.10900
C900        C  0.58416423  0.92345422  0.07666253     0.20700
C901        C  0.60913705  0.92500133  0.05815662    -0.12900
C902        C  0.62791727  0.91270088  0.06871483    -0.11200
C903        C  0.56610287  0.93763148  0.06604465     0.01600
C904        C  0.55402329  0.95237894  0.05653955    -0.31200
C905        C  0.64087151  0.88577093  0.10862138     0.03000
C906        C  0.65592012  0.87386979  0.11771637    -0.32900
H907        H  0.59200297  0.88661324  0.13896914     0.14000
H908        H  0.55907781  0.90854839  0.12041568     0.13900
H909        H  0.61424102  0.93592383  0.03565006     0.13700
H910        H  0.64714380  0.91402546  0.05419277     0.12800
C911        C  0.92017666  0.60076515  0.57934753     0.19100
C912        C  0.91746350  0.60389102  0.61006283    -0.10000
C913        C  0.90331542  0.62099404  0.62058039    -0.10900
C914        C  0.89188711  0.63510015  0.60042820     0.20700
C915        C  0.89465252  0.63199361  0.56973707    -0.12900
C916        C  0.90877816  0.61490522  0.55923151    -0.11200
C917        C  0.87687445  0.65230490  0.61115835     0.01600
C918        C  0.86345058  0.66599699  0.61990743    -0.31200
C919        C  0.93563629  0.58410853  0.56831327     0.03000
C920        C  0.95016712  0.57211581  0.55819655    -0.32900
H921        H  0.92637691  0.59324532  0.62582820     0.14000
H922        H  0.90128229  0.62321057  0.64436486     0.13900
H923        H  0.88588527  0.64276234  0.55394801     0.13700
H924        H  0.91093258  0.61283196  0.53543780     0.12800
C925        C  0.92789745  0.84839497  0.57067083     0.19100
C926        C  0.89175790  0.82648847  0.57485137    -0.10000
C927        C  0.87576065  0.79325821  0.58799289    -0.10900
C928        C  0.89577722  0.78168921  0.59700683     0.20700
C929        C  0.93193424  0.80374833  0.59315731    -0.12900
C930        C  0.94792988  0.83697596  0.58002451    -0.11200
C931        C  0.87913125  0.74694454  0.60947885     0.01600
C932        C  0.86454475  0.71750465  0.61929680    -0.31200
C933        C  0.94424307  0.88162500  0.55515835     0.03000
C934        C  0.95766885  0.90806706  0.54005679    -0.32900
H935        H  0.87592941  0.83486794  0.56752968     0.14000
H936        H  0.84778513  0.77643751  0.59077254     0.13900
H937        H  0.94770765  0.79511208  0.59995095     0.13700
H938        H  0.97585075  0.85353735  0.57672548     0.12800
C939        C  0.67953173  0.58815998  0.57730362     0.19100
C940        C  0.70724894  0.59438817  0.55947201    -0.10000
C941        C  0.74067372  0.61262695  0.57064363    -0.10900
C942        C  0.74659620  0.62481062  0.59968917     0.20700
C943        C  0.71883633  0.61828970  0.61764417    -0.12900
C944        C  0.68540441  0.60004568  0.60647173    -0.11200
C945        C  0.78120702  0.64449831  0.61081727     0.01600
C946        C  0.81035357  0.66120256  0.61982547    -0.31200
C947        C  0.64554295  0.57142421  0.56515825     0.03000
C948        C  0.61761492  0.56017658  0.55486267    -0.32900
H949        H  0.70311089  0.58558033  0.53682493     0.14000
H950        H  0.76193884  0.61755312  0.55654148     0.13900
H951        H  0.72309745  0.62761899  0.64012066     0.13700
H952        H  0.66425260  0.59563766  0.62040900     0.12800
C953        C  0.84192391  0.67602680  0.72229153     0.19100
C954        C  0.81014358  0.66033831  0.73794472    -0.10000
C955        C  0.80885698  0.65827701  0.76913714    -0.10900
C956        C  0.83934158  0.67188012  0.78481176     0.20700
C957        C  0.87106766  0.68736032  0.76914401    -0.12900
C958        C  0.87235362  0.68942124  0.73797269    -0.11200
C959        C  0.83821618  0.67040621  0.81691944     0.01600
C960        C  0.83778684  0.66975965  0.84382327    -0.31200
C961        C  0.84337109  0.67841205  0.69019732     0.03000
C962        C  0.84467080  0.68017220  0.66329404    -0.32900
H963        H  0.78643315  0.64982535  0.72605854     0.14000
H964        H  0.78417674  0.64624147  0.78101123     0.13900
H965        H  0.89479875  0.69795715  0.78101919     0.13700
H966        H  0.89705408  0.70154004  0.72611404     0.12800
C967        C  0.88983699  0.62948556  0.90679899     0.19100
C968        C  0.88408728  0.59943107  0.89496865    -0.10000
C969        C  0.90228671  0.58648988  0.90555184    -0.10900
C970        C  0.92636870  0.60356337  0.92798188     0.20700
C971        C  0.93224439  0.63371383  0.93972909    -0.12900
C972        C  0.91403801  0.64666992  0.92913164    -0.11200
C973        C  0.94377219  0.58914113  0.93971238     0.01600
C974        C  0.95553530  0.57428402  0.94969542    -0.31200
C975        C  0.87088418  0.64263830  0.89609317     0.03000
C976        C  0.85542784  0.65417108  0.88719195    -0.32900
H977        H  0.86543733  0.58593014  0.87770935     0.14000
H978        H  0.89736750  0.56302262  0.89644459     0.13900
H979        H  0.95062802  0.64699405  0.95720791     0.13700
H980        H  0.91867808  0.66993364  0.93844027     0.12800
C981        C  0.89078255  0.76915652  0.90618308     0.19100
C982        C  0.88372674  0.79236542  0.89534482    -0.10000
C983        C  0.90159709  0.82596961  0.90608828    -0.10900
C984        C  0.92665039  0.83658785  0.92772054     0.20700
C985        C  0.93386458  0.81344384  0.93844321    -0.12900
C986        C  0.91598346  0.77981172  0.92768394    -0.11200
C987        C  0.94384682  0.87075351  0.93958822     0.01600
C988        C  0.95583116  0.89897483  0.94957409    -0.31200
C989        C  0.87197818  0.73437918  0.89544830     0.03000
C990        C  0.85629519  0.70513688  0.88669049    -0.32900
H991        H  0.86428818  0.78442313  0.87875024     0.14000
H992        H  0.89566553  0.84356401  0.89773002     0.13900
H993        H  0.95304461  0.82127994  0.95526402     0.13700
H994        H  0.92163697  0.76207418  0.93624625     0.12800
C995        C  0.67127960  0.58173537  0.93733831     0.19100
C996        C  0.68129499  0.60442336  0.91254110    -0.10000
C997        C  0.71448885  0.62086400  0.89945376    -0.10900
C998        C  0.73785349  0.61473800  0.91111431     0.20700
C999        C  0.72768591  0.59171641  0.93567922    -0.12900
C1000       C  0.69450672  0.57527701  0.94875542    -0.11200
C1001       C  0.77256311  0.63291563  0.89851937     0.01600
C1002       C  0.80191536  0.64900389  0.88844595    -0.31200
C1003       C  0.63793471  0.56636504  0.95204643     0.03000
C1004       C  0.61145928  0.55429315  0.96659707    -0.32900
H1005       H  0.66366093  0.60977827  0.90361199     0.14000
H1006       H  0.72208963  0.63868576  0.88052136     0.13900
H1007       H  0.74553842  0.58684373  0.94495275     0.13700
H1008       H  0.68714679  0.55794004  0.96802103     0.12800
loop_ 
_geom_bond_atom_site_label_1 
_geom_bond_atom_site_label_2 
_geom_bond_distance 
_geom_bond_site_symmetry_2 
_ccdc_geom_bond_type 
C1          C204   1.467       .  S
C1          C220   1.466       .  S
C1          C234   1.468       .  S
C1          C246   1.468       .  S
C2          C162   1.468       .  S
C2          C176   1.471       .  S
C2          C190   1.468       .  S
C2          C206   1.467       .  S
C3          C106   1.468       .  S
C3          C122   1.468       .  S
C3          C134   1.468       .  S
C3          C150   1.466       .  S
C4           C66   1.471       .  S
C4           C80   1.470       .  S
C4           C92   1.473       .  S
C4          C108   1.469       .  S
O5          Ni11   1.931       .  S
O5           C26   1.270       .  A
O6          Ni29   1.908       .  S
O6           C15   1.266       .  A
O7         Ni263   1.918   1_545  S
O7         Ni533   1.913   1_556  S
O7         Ni779   1.913   1_546  S
O7          H534   0.966       .  S
C8           O25   1.272       .  A
C8          O269   1.272       .  A
C8          C148   1.434       .  S
O9          Ni28   1.931       .  S
O9           C15   1.270       .  A
O10         Ni28   1.905       .  S
O10          C12   1.267   1_554  A
Ni11         O16   1.905       .  S
Ni11        O266   1.923       .  S
Ni11        O259   1.918       .  S
C12          O22   1.272       .  A
C12         C248   1.437       .  S
O13        Ni533   1.914   1_556  S
O13          C19   1.272       .  A
O14        Ni263   1.923   1_545  S
O14          C19   1.272       .  A
C15         C120   1.437       .  S
O16          C18   1.267   1_556  A
O17         Ni28   1.923       .  S
O17         C260   1.272   1_545  A
C18         O276   1.272       .  A
C18         C136   1.436       .  S
C19         C218   1.434       .  S
H20          O21   0.966   1_655  S
O21         Ni29   1.913       .  S
O21         Ni28   1.917       .  S
O21        Ni275   1.913   1_545  S
O22        Ni275   1.934   1_546  S
Ni23         O25   1.915       .  S
Ni23        O274   1.934   1_554  S
Ni23        O531   1.908   1_454  S
Ni23        O763   1.913   1_454  S
Ni23        O273   1.913       .  S
O24        Ni533   1.932       .  S
O24         C270   1.272   1_545  A
C26          O27   1.266       .  A
C26         C232   1.437       .  S
O27        Ni527   1.908   1_556  S
Ni29        O517   1.914   1_454  S
Ni29        O528   1.932   1_455  S
Ni29        O511   1.913   1_454  S
H30         O511   0.966   1_455  S
O31         Ni37   1.931       .  S
O31          C52   1.270       .  A
O32         Ni55   1.913       .  S
O32         C293   1.267   1_545  A
O33         Ni37   1.915       .  S
O33         Ni49   1.913       .  S
O33        Ni559   1.912   1_455  S
O33          H56   0.966   1_455  S
C34          O51   1.274       .  A
C34          O43   1.273       .  A
C34          C78   1.438       .  S
O35         Ni54   1.931       .  S
O35          C41   1.270       .  A
O36         Ni54   1.907       .  S
O36          C38   1.267       .  A
Ni37         O40   1.928       .  S
Ni37         O42   1.905       .  S
C38         O552   1.273       .  A
C38         C178   1.439       .  S
O39         Ni55   1.914       .  S
O39          C45   1.272       .  A
O40         C549   1.274   1_455  A
C41         O284   1.267       .  A
C41          C64   1.440       .  S
O42          C44   1.267       .  A
O43        Ni558   1.924   1_455  S
C44          O50   1.274       .  A
C44          C94   1.441       .  S
C45         O544   1.274       .  A
C45         C164   1.436       .  S
H46         O551   0.966   1_455  S
O47         Ni55   1.915       .  S
O47        Ni553   1.913       .  S
O47        Ni306   1.916   1_545  S
O47         H550   0.966       .  S
O48        Ni301   1.934   1_655  S
O48         C542   1.273       .  A
Ni49         O53   1.911       .  S
Ni49        O300   1.934   1_445  S
Ni49        O303   1.920   1_545  S
Ni49        O551   1.913   1_455  S
O50        Ni559   1.940   1_455  S
O51        Ni301   1.920       .  S
C52          O53   1.267       .  A
C52         C192   1.438       .  S
Ni54        O547   1.924       .  S
Ni54        O299   1.916       .  S
Ni55        O554   1.940       .  S
Ni55        O537   1.912       .  S
C57          C65   1.444       .  S
C57          C58   1.401       .  A
C57          C62   1.403       .  A
C58          C59   1.400       .  A
C58          H67   1.083       .  S
C59          C60   1.402       .  A
C59          H68   1.083       .  S
C60          C63   1.445       .  S
C60          C61   1.402       .  A
C61          C62   1.401       .  A
C61          H69   1.083       .  S
C62          H70   1.083       .  S
C63          C64   1.209       .  T
C65          C66   1.209       .  T
C71          C79   1.443       .  S
C71          C72   1.401       .  A
C71          C76   1.402       .  A
C72          C73   1.399       .  A
C72          H81   1.083       .  S
C73          C74   1.401       .  A
C73          H82   1.083       .  S
C74          C77   1.443       .  S
C74          C75   1.403       .  A
C75          C76   1.401       .  A
C75          H83   1.083       .  S
C76          H84   1.083       .  S
C77          C78   1.208       .  T
C79          C80   1.209       .  T
C85          C93   1.446       .  S
C85          C86   1.402       .  A
C85          C90   1.403       .  A
C86          C87   1.401       .  A
C86          H95   1.083       .  S
C87          C88   1.403       .  A
C87          H96   1.083       .  S
C88          C91   1.446       .  S
C88          C89   1.402       .  A
C89          C90   1.402       .  A
C89          H97   1.083       .  S
C90          H98   1.083       .  S
C91          C92   1.210       .  T
C93          C94   1.210       .  T
C99         C107   1.442       .  S
C99         C100   1.402       .  A
C99         C104   1.402       .  A
C100        C101   1.400       .  A
C100        H109   1.083       .  S
C101        C102   1.401       .  A
C101        H110   1.083       .  S
C102        C105   1.441       .  S
C102        C103   1.402       .  A
C103        C104   1.400       .  A
C103        H111   1.083       .  S
C104        H112   1.083       .  S
C105        C106   1.208       .  T
C107        C108   1.208       .  T
C113        C121   1.441       .  S
C113        C114   1.401       .  A
C113        C118   1.402       .  A
C114        C115   1.399       .  A
C114        H123   1.083       .  S
C115        C116   1.402       .  A
C115        H124   1.083       .  S
C116        C119   1.442       .  S
C116        C117   1.401       .  A
C117        C118   1.400       .  A
C117        H125   1.083       .  S
C118        H126   1.083       .  S
C119        C120   1.207       .  T
C121        C122   1.208       .  T
C127        C135   1.441       .  S
C127        C128   1.402       .  A
C127        C132   1.401       .  A
C128        C129   1.401       .  A
C128        H137   1.083       .  S
C129        C130   1.402       .  A
C129        H138   1.083       .  S
C130        C133   1.441       .  S
C130        C131   1.401       .  A
C131        C132   1.399       .  A
C131        H139   1.083       .  S
C132        H140   1.083       .  S
C133        C134   1.208       .  T
C135        C136   1.207       .  T
C141        C149   1.440       .  S
C141        C142   1.402       .  A
C141        C146   1.401       .  A
C142        C143   1.400       .  A
C142        H151   1.083       .  S
C143        C144   1.401       .  A
C143        H152   1.083       .  S
C144        C147   1.440       .  S
C144        C145   1.402       .  A
C145        C146   1.399       .  A
C145        H153   1.084       .  S
C146        H154   1.083       .  S
C147        C148   1.206       .  T
C149        C150   1.207       .  T
C155        C163   1.441       .  S
C155        C156   1.402       .  A
C155        C160   1.401       .  A
C156        C157   1.400       .  A
C156        H165   1.083       .  S
C157        C158   1.402       .  A
C157        H166   1.083       .  S
C158        C161   1.441       .  S
C158        C159   1.401       .  A
C159        C160   1.399       .  A
C159        H167   1.083       .  S
C160        H168   1.083       .  S
C161        C162   1.208       .  T
C163        C164   1.207       .  T
C169        C177   1.444       .  S
C169        C170   1.402       .  A
C169        C174   1.402       .  A
C170        C171   1.401       .  A
C170        H179   1.083       .  S
C171        C172   1.402       .  A
C171        H180   1.083       .  S
C172        C175   1.444       .  S
C172        C173   1.402       .  A
C173        C174   1.401       .  A
C173        H181   1.083       .  S
C174        H182   1.083       .  S
C175        C176   1.209       .  T
C177        C178   1.208       .  T
C183        C191   1.443       .  S
C183        C184   1.401       .  A
C183        C188   1.402       .  A
C184        C185   1.400       .  A
C184        H193   1.083       .  S
C185        C186   1.401       .  A
C185        H194   1.083       .  S
C186        C189   1.441       .  S
C186        C187   1.401       .  A
C187        C188   1.400       .  A
C187        H195   1.084       .  S
C188        H196   1.083       .  S
C189        C190   1.208       .  T
C191        C192   1.208       .  T
C197        C205   1.441       .  S
C197        C198   1.402       .  A
C197        C202   1.401       .  A
C198        C199   1.400       .  A
C198        H207   1.083       .  S
C199        C200   1.402       .  A
C199        H208   1.083       .  S
C200        C203   1.441       .  S
C200        C201   1.401       .  A
C201        C202   1.399       .  A
C201        H209   1.083       .  S
C202        H210   1.083       .  S
C203        C204   1.207       .  T
C205        C206   1.207       .  T
C211        C219   1.440       .  S
C211        C212   1.401       .  A
C211        C216   1.402       .  A
C212        C213   1.398       .  A
C212        H221   1.083       .  S
C213        C214   1.402       .  A
C213        H222   1.084       .  S
C214        C217   1.440       .  S
C214        C215   1.401       .  A
C215        C216   1.400       .  A
C215        H223   1.083       .  S
C216        H224   1.083       .  S
C217        C218   1.206       .  T
C219        C220   1.207       .  T
C225        C233   1.441       .  S
C225        C226   1.401       .  A
C225        C230   1.402       .  A
C226        C227   1.399       .  A
C226        H235   1.083       .  S
C227        C228   1.402       .  A
C227        H236   1.083       .  S
C228        C231   1.442       .  S
C228        C229   1.402       .  A
C229        C230   1.400       .  A
C229        H237   1.083       .  S
C230        H238   1.083       .  S
C231        C232   1.207       .  T
C233        C234   1.207       .  T
C239        C247   1.442       .  S
C239        C240   1.401       .  A
C239        C244   1.402       .  A
C240        C241   1.400       .  A
C240        H249   1.083       .  S
C241        C242   1.402       .  A
C241        H250   1.083       .  S
C242        C245   1.442       .  S
C242        C243   1.401       .  A
C243        C244   1.400       .  A
C243        H251   1.084       .  S
C244        H252   1.084       .  S
C245        C246   1.208       .  T
C247        C248   1.207       .  T
C253        C456   1.467       .  S
C253        C472   1.466       .  S
C253        C486   1.468       .  S
C253        C498   1.468       .  S
C254        C414   1.468       .  S
C254        C428   1.471       .  S
C254        C442   1.468       .  S
C254        C458   1.467       .  S
C255        C358   1.468       .  S
C255        C374   1.468       .  S
C255        C386   1.468       .  S
C255        C402   1.466       .  S
C256        C318   1.471       .  S
C256        C332   1.470       .  S
C256        C344   1.473       .  S
C256        C360   1.469       .  S
O257       Ni263   1.931       .  S
O257        C278   1.270       .  A
O258       Ni281   1.908       .  S
O258        C267   1.266       .  A
O259       Ni785   1.913   1_556  S
O259       Ni527   1.913   1_556  S
O259        H786   0.966       .  S
C260        O277   1.272       .  A
C260        C400   1.434       .  S
O261       Ni280   1.931       .  S
O261        C267   1.270       .  A
O262       Ni280   1.905       .  S
O262        C264   1.267   1_554  A
Ni263       O268   1.905       .  S
C264        O274   1.272       .  A
C264        C500   1.437       .  S
O265       Ni785   1.914   1_556  S
O265        C271   1.272       .  A
O266        C271   1.272       .  A
C267        C372   1.437       .  S
O268        C270   1.267   1_556  A
O269       Ni280   1.923       .  S
C270        C388   1.436       .  S
C271        C470   1.434       .  S
H272        O273   0.966   1_655  S
O273       Ni281   1.913       .  S
O273       Ni280   1.917       .  S
Ni275       O783   1.908   1_454  S
Ni275       O277   1.915       .  S
Ni275       O511   1.913   1_464  S
O276       Ni785   1.932       .  S
C278        O279   1.266       .  A
C278        C484   1.437       .  S
O279       Ni779   1.908   1_556  S
Ni281       O769   1.914   1_454  S
Ni281       O780   1.932   1_455  S
Ni281       O763   1.913   1_454  S
H282        O763   0.966   1_455  S
O283       Ni289   1.931       .  S
O283        C304   1.270       .  A
O284       Ni307   1.913       .  S
O285       Ni289   1.915       .  S
O285       Ni811   1.912   1_455  S
O285       Ni301   1.913       .  S
O285        H308   0.966   1_455  S
C286        O303   1.274       .  A
C286        O295   1.273       .  A
C286        C330   1.438       .  S
O287       Ni306   1.931       .  S
O287        C293   1.270       .  A
O288       Ni306   1.907       .  S
O288        C290   1.267       .  A
Ni289       O292   1.928       .  S
Ni289       O294   1.905       .  S
C290        O804   1.273       .  A
C290        C430   1.439       .  S
O291       Ni307   1.914       .  S
O291        C297   1.272       .  A
O292        C801   1.274   1_455  A
C293        C316   1.440       .  S
O294        C296   1.267       .  A
O295       Ni810   1.924   1_455  S
C296        O302   1.274       .  A
C296        C346   1.441       .  S
C297        O796   1.274       .  A
C297        C416   1.436       .  S
H298        O803   0.966   1_455  S
O299       Ni307   1.915       .  S
O299       Ni805   1.913       .  S
O299        H802   0.966       .  S
O300        C794   1.273       .  A
Ni301       O305   1.911       .  S
Ni301       O803   1.913   1_455  S
O302       Ni811   1.940   1_455  S
C304        O305   1.267       .  A
C304        C444   1.438       .  S
Ni306       O799   1.924       .  S
Ni307       O806   1.940       .  S
Ni307       O789   1.912       .  S
C309        C317   1.444       .  S
C309        C310   1.401       .  A
C309        C314   1.403       .  A
C310        C311   1.400       .  A
C310        H319   1.083       .  S
C311        C312   1.402       .  A
C311        H320   1.083       .  S
C312        C315   1.445       .  S
C312        C313   1.402       .  A
C313        C314   1.401       .  A
C313        H321   1.083       .  S
C314        H322   1.083       .  S
C315        C316   1.209       .  T
C317        C318   1.209       .  T
C323        C331   1.443       .  S
C323        C324   1.401       .  A
C323        C328   1.402       .  A
C324        C325   1.399       .  A
C324        H333   1.083       .  S
C325        C326   1.401       .  A
C325        H334   1.083       .  S
C326        C329   1.443       .  S
C326        C327   1.403       .  A
C327        C328   1.401       .  A
C327        H335   1.083       .  S
C328        H336   1.083       .  S
C329        C330   1.208       .  T
C331        C332   1.209       .  T
C337        C345   1.446       .  S
C337        C338   1.402       .  A
C337        C342   1.403       .  A
C338        C339   1.401       .  A
C338        H347   1.083       .  S
C339        C340   1.403       .  A
C339        H348   1.083       .  S
C340        C343   1.446       .  S
C340        C341   1.402       .  A
C341        C342   1.402       .  A
C341        H349   1.083       .  S
C342        H350   1.083       .  S
C343        C344   1.210       .  T
C345        C346   1.210       .  T
C351        C359   1.442       .  S
C351        C352   1.402       .  A
C351        C356   1.402       .  A
C352        C353   1.400       .  A
C352        H361   1.083       .  S
C353        C354   1.401       .  A
C353        H362   1.083       .  S
C354        C357   1.441       .  S
C354        C355   1.402       .  A
C355        C356   1.400       .  A
C355        H363   1.083       .  S
C356        H364   1.083       .  S
C357        C358   1.208       .  T
C359        C360   1.208       .  T
C365        C373   1.441       .  S
C365        C366   1.401       .  A
C365        C370   1.402       .  A
C366        C367   1.399       .  A
C366        H375   1.083       .  S
C367        C368   1.402       .  A
C367        H376   1.083       .  S
C368        C371   1.442       .  S
C368        C369   1.402       .  A
C369        C370   1.400       .  A
C369        H377   1.083       .  S
C370        H378   1.083       .  S
C371        C372   1.207       .  T
C373        C374   1.208       .  T
C379        C387   1.441       .  S
C379        C380   1.402       .  A
C379        C384   1.401       .  A
C380        C381   1.401       .  A
C380        H389   1.083       .  S
C381        C382   1.402       .  A
C381        H390   1.083       .  S
C382        C385   1.441       .  S
C382        C383   1.401       .  A
C383        C384   1.399       .  A
C383        H391   1.083       .  S
C384        H392   1.083       .  S
C385        C386   1.208       .  T
C387        C388   1.207       .  T
C393        C401   1.440       .  S
C393        C394   1.402       .  A
C393        C398   1.401       .  A
C394        C395   1.400       .  A
C394        H403   1.083       .  S
C395        C396   1.401       .  A
C395        H404   1.083       .  S
C396        C399   1.440       .  S
C396        C397   1.402       .  A
C397        C398   1.399       .  A
C397        H405   1.084       .  S
C398        H406   1.083       .  S
C399        C400   1.206       .  T
C401        C402   1.207       .  T
C407        C415   1.441       .  S
C407        C408   1.402       .  A
C407        C412   1.401       .  A
C408        C409   1.400       .  A
C408        H417   1.083       .  S
C409        C410   1.402       .  A
C409        H418   1.083       .  S
C410        C413   1.441       .  S
C410        C411   1.401       .  A
C411        C412   1.399       .  A
C411        H419   1.083       .  S
C412        H420   1.083       .  S
C413        C414   1.208       .  T
C415        C416   1.207       .  T
C421        C429   1.444       .  S
C421        C422   1.402       .  A
C421        C426   1.402       .  A
C422        C423   1.401       .  A
C422        H431   1.083       .  S
C423        C424   1.402       .  A
C423        H432   1.083       .  S
C424        C427   1.444       .  S
C424        C425   1.402       .  A
C425        C426   1.401       .  A
C425        H433   1.083       .  S
C426        H434   1.083       .  S
C427        C428   1.209       .  T
C429        C430   1.208       .  T
C435        C443   1.443       .  S
C435        C436   1.401       .  A
C435        C440   1.402       .  A
C436        C437   1.400       .  A
C436        H445   1.083       .  S
C437        C438   1.401       .  A
C437        H446   1.083       .  S
C438        C441   1.441       .  S
C438        C439   1.401       .  A
C439        C440   1.400       .  A
C439        H447   1.084       .  S
C440        H448   1.083       .  S
C441        C442   1.208       .  T
C443        C444   1.208       .  T
C449        C457   1.441       .  S
C449        C450   1.402       .  A
C449        C454   1.401       .  A
C450        C451   1.400       .  A
C450        H459   1.083       .  S
C451        C452   1.402       .  A
C451        H460   1.083       .  S
C452        C455   1.441       .  S
C452        C453   1.401       .  A
C453        C454   1.399       .  A
C453        H461   1.083       .  S
C454        H462   1.083       .  S
C455        C456   1.207       .  T
C457        C458   1.207       .  T
C463        C471   1.440       .  S
C463        C464   1.401       .  A
C463        C468   1.402       .  A
C464        C465   1.398       .  A
C464        H473   1.083       .  S
C465        C466   1.402       .  A
C465        H474   1.084       .  S
C466        C469   1.440       .  S
C466        C467   1.401       .  A
C467        C468   1.400       .  A
C467        H475   1.083       .  S
C468        H476   1.083       .  S
C469        C470   1.206       .  T
C471        C472   1.207       .  T
C477        C485   1.441       .  S
C477        C478   1.401       .  A
C477        C482   1.402       .  A
C478        C479   1.399       .  A
C478        H487   1.083       .  S
C479        C480   1.402       .  A
C479        H488   1.083       .  S
C480        C483   1.442       .  S
C480        C481   1.402       .  A
C481        C482   1.400       .  A
C481        H489   1.083       .  S
C482        H490   1.083       .  S
C483        C484   1.207       .  T
C485        C486   1.207       .  T
C491        C499   1.442       .  S
C491        C492   1.401       .  A
C491        C496   1.402       .  A
C492        C493   1.400       .  A
C492        H501   1.083       .  S
C493        C494   1.402       .  A
C493        H502   1.083       .  S
C494        C497   1.442       .  S
C494        C495   1.401       .  A
C495        C496   1.400       .  A
C495        H503   1.084       .  S
C496        H504   1.084       .  S
C497        C498   1.208       .  T
C499        C500   1.207       .  T
C505        C708   1.467       .  S
C505        C724   1.466       .  S
C505        C738   1.468       .  S
C505        C750   1.468       .  S
C506        C666   1.468       .  S
C506        C680   1.471       .  S
C506        C694   1.468       .  S
C506        C710   1.467       .  S
C507        C610   1.468       .  S
C507        C626   1.468       .  S
C507        C638   1.468       .  S
C507        C654   1.466       .  S
C508        C570   1.471       .  S
C508        C584   1.470       .  S
C508        C596   1.473       .  S
C508        C612   1.469       .  S
O509       Ni515   1.931       .  S
O509        C530   1.270       .  A
O510       Ni533   1.908       .  S
O510        C519   1.266       .  A
O511       Ni767   1.918   1_545  S
C512        O529   1.272       .  A
C512        O773   1.272       .  A
C512        C652   1.434       .  S
O513       Ni532   1.931       .  S
O513        C519   1.270       .  A
O514       Ni532   1.905       .  S
O514        C516   1.267   1_554  A
Ni515       O770   1.923       .  S
Ni515       O520   1.905       .  S
Ni515       O763   1.918       .  S
C516        O526   1.272       .  A
C516        C752   1.437       .  S
O517        C523   1.272       .  A
O518       Ni767   1.923   1_545  S
O518        C523   1.272       .  A
C519        C624   1.437       .  S
O520        C522   1.267   1_556  A
O521       Ni532   1.923       .  S
O521        C764   1.272   1_545  A
C522        O780   1.272       .  A
C522        C640   1.436       .  S
C523        C722   1.434       .  S
H524        O525   0.966       .  S
O525       Ni533   1.913       .  S
O525       Ni779   1.913   1_545  S
O525       Ni532   1.917       .  S
O526       Ni779   1.934   1_546  S
Ni527       O778   1.934   1_554  S
Ni527       O529   1.915       .  S
Ni527       O777   1.913       .  S
O528        C774   1.272   1_545  A
C530        O531   1.266       .  A
C530        C736   1.437       .  S
O535       Ni541   1.931       .  S
O535        C556   1.270       .  A
O536       Ni559   1.913       .  S
O536        C797   1.267   1_545  A
O537       Ni541   1.915       .  S
O537       Ni553   1.913       .  S
O537        H560   0.966       .  S
C538        O555   1.274       .  A
C538        O547   1.273       .  A
C538        C582   1.438       .  S
O539       Ni558   1.931       .  S
O539        C545   1.270       .  A
O540       Ni558   1.907       .  S
O540        C542   1.267       .  A
Ni541       O544   1.928       .  S
Ni541       O546   1.905       .  S
C542        C682   1.439       .  S
O543       Ni559   1.914       .  S
O543        C549   1.272       .  A
C545        O788   1.267       .  A
C545        C568   1.440       .  S
O546        C548   1.267       .  A
C548        O554   1.274       .  A
C548        C598   1.441       .  S
C549        C668   1.436       .  S
O551       Ni559   1.915       .  S
O551       Ni810   1.916   1_545  S
O552       Ni805   1.934       .  S
Ni553       O804   1.934   1_545  S
Ni553       O557   1.911       .  S
Ni553       O807   1.920   1_545  S
O555       Ni805   1.920       .  S
C556        O557   1.267       .  A
C556        C696   1.438       .  S
Ni558       O803   1.916       .  S
C561        C569   1.444       .  S
C561        C562   1.401       .  A
C561        C566   1.403       .  A
C562        C563   1.400       .  A
C562        H571   1.083       .  S
C563        C564   1.402       .  A
C563        H572   1.083       .  S
C564        C567   1.445       .  S
C564        C565   1.402       .  A
C565        C566   1.401       .  A
C565        H573   1.083       .  S
C566        H574   1.083       .  S
C567        C568   1.209       .  T
C569        C570   1.209       .  T
C575        C583   1.443       .  S
C575        C576   1.401       .  A
C575        C580   1.402       .  A
C576        C577   1.399       .  A
C576        H585   1.083       .  S
C577        C578   1.401       .  A
C577        H586   1.083       .  S
C578        C581   1.443       .  S
C578        C579   1.403       .  A
C579        C580   1.401       .  A
C579        H587   1.083       .  S
C580        H588   1.083       .  S
C581        C582   1.208       .  T
C583        C584   1.209       .  T
C589        C597   1.446       .  S
C589        C590   1.402       .  A
C589        C594   1.403       .  A
C590        C591   1.401       .  A
C590        H599   1.083       .  S
C591        C592   1.403       .  A
C591        H600   1.083       .  S
C592        C595   1.446       .  S
C592        C593   1.402       .  A
C593        C594   1.402       .  A
C593        H601   1.083       .  S
C594        H602   1.083       .  S
C595        C596   1.210       .  T
C597        C598   1.210       .  T
C603        C611   1.442       .  S
C603        C604   1.402       .  A
C603        C608   1.402       .  A
C604        C605   1.400       .  A
C604        H613   1.083       .  S
C605        C606   1.401       .  A
C605        H614   1.083       .  S
C606        C609   1.441       .  S
C606        C607   1.402       .  A
C607        C608   1.400       .  A
C607        H615   1.083       .  S
C608        H616   1.083       .  S
C609        C610   1.208       .  T
C611        C612   1.208       .  T
C617        C625   1.441       .  S
C617        C618   1.401       .  A
C617        C622   1.402       .  A
C618        C619   1.399       .  A
C618        H627   1.083       .  S
C619        C620   1.402       .  A
C619        H628   1.083       .  S
C620        C623   1.442       .  S
C620        C621   1.401       .  A
C621        C622   1.400       .  A
C621        H629   1.083       .  S
C622        H630   1.083       .  S
C623        C624   1.207       .  T
C625        C626   1.208       .  T
C631        C639   1.441       .  S
C631        C632   1.402       .  A
C631        C636   1.401       .  A
C632        C633   1.401       .  A
C632        H641   1.083       .  S
C633        C634   1.402       .  A
C633        H642   1.083       .  S
C634        C637   1.441       .  S
C634        C635   1.401       .  A
C635        C636   1.399       .  A
C635        H643   1.083       .  S
C636        H644   1.083       .  S
C637        C638   1.208       .  T
C639        C640   1.207       .  T
C645        C653   1.440       .  S
C645        C646   1.402       .  A
C645        C650   1.401       .  A
C646        C647   1.400       .  A
C646        H655   1.083       .  S
C647        C648   1.401       .  A
C647        H656   1.083       .  S
C648        C651   1.440       .  S
C648        C649   1.402       .  A
C649        C650   1.399       .  A
C649        H657   1.084       .  S
C650        H658   1.083       .  S
C651        C652   1.206       .  T
C653        C654   1.207       .  T
C659        C667   1.441       .  S
C659        C660   1.402       .  A
C659        C664   1.401       .  A
C660        C661   1.400       .  A
C660        H669   1.083       .  S
C661        C662   1.402       .  A
C661        H670   1.083       .  S
C662        C665   1.441       .  S
C662        C663   1.401       .  A
C663        C664   1.399       .  A
C663        H671   1.083       .  S
C664        H672   1.083       .  S
C665        C666   1.208       .  T
C667        C668   1.207       .  T
C673        C681   1.444       .  S
C673        C674   1.402       .  A
C673        C678   1.402       .  A
C674        C675   1.401       .  A
C674        H683   1.083       .  S
C675        C676   1.402       .  A
C675        H684   1.083       .  S
C676        C679   1.444       .  S
C676        C677   1.402       .  A
C677        C678   1.401       .  A
C677        H685   1.083       .  S
C678        H686   1.083       .  S
C679        C680   1.209       .  T
C681        C682   1.208       .  T
C687        C695   1.443       .  S
C687        C688   1.401       .  A
C687        C692   1.402       .  A
C688        C689   1.400       .  A
C688        H697   1.083       .  S
C689        C690   1.401       .  A
C689        H698   1.083       .  S
C690        C693   1.441       .  S
C690        C691   1.401       .  A
C691        C692   1.400       .  A
C691        H699   1.084       .  S
C692        H700   1.083       .  S
C693        C694   1.208       .  T
C695        C696   1.208       .  T
C701        C709   1.441       .  S
C701        C702   1.402       .  A
C701        C706   1.401       .  A
C702        C703   1.400       .  A
C702        H711   1.083       .  S
C703        C704   1.402       .  A
C703        H712   1.083       .  S
C704        C707   1.441       .  S
C704        C705   1.401       .  A
C705        C706   1.399       .  A
C705        H713   1.083       .  S
C706        H714   1.083       .  S
C707        C708   1.207       .  T
C709        C710   1.207       .  T
C715        C723   1.440       .  S
C715        C716   1.401       .  A
C715        C720   1.402       .  A
C716        C717   1.398       .  A
C716        H725   1.083       .  S
C717        C718   1.402       .  A
C717        H726   1.084       .  S
C718        C721   1.440       .  S
C718        C719   1.401       .  A
C719        C720   1.400       .  A
C719        H727   1.083       .  S
C720        H728   1.083       .  S
C721        C722   1.206       .  T
C723        C724   1.207       .  T
C729        C737   1.441       .  S
C729        C730   1.401       .  A
C729        C734   1.402       .  A
C730        C731   1.399       .  A
C730        H739   1.083       .  S
C731        C732   1.402       .  A
C731        H740   1.083       .  S
C732        C735   1.442       .  S
C732        C733   1.402       .  A
C733        C734   1.400       .  A
C733        H741   1.083       .  S
C734        H742   1.083       .  S
C735        C736   1.207       .  T
C737        C738   1.207       .  T
C743        C751   1.442       .  S
C743        C744   1.401       .  A
C743        C748   1.402       .  A
C744        C745   1.400       .  A
C744        H753   1.083       .  S
C745        C746   1.402       .  A
C745        H754   1.083       .  S
C746        C749   1.442       .  S
C746        C747   1.401       .  A
C747        C748   1.400       .  A
C747        H755   1.084       .  S
C748        H756   1.084       .  S
C749        C750   1.208       .  T
C751        C752   1.207       .  T
C757        C960   1.467       .  S
C757        C976   1.466       .  S
C757        C990   1.468       .  S
C757       C1002   1.468       .  S
C758        C918   1.468       .  S
C758        C932   1.471       .  S
C758        C946   1.468       .  S
C758        C962   1.467       .  S
C759        C862   1.468       .  S
C759        C878   1.468       .  S
C759        C890   1.468       .  S
C759        C906   1.466       .  S
C760        C822   1.471       .  S
C760        C836   1.470       .  S
C760        C848   1.473       .  S
C760        C864   1.469       .  S
O761       Ni767   1.931       .  S
O761        C782   1.270       .  A
O762       Ni785   1.908       .  S
O762        C771   1.266       .  A
C764        O781   1.272       .  A
C764        C904   1.434       .  S
O765       Ni784   1.931       .  S
O765        C771   1.270       .  A
O766       Ni784   1.905       .  S
O766        C768   1.267   1_554  A
Ni767       O772   1.905       .  S
C768        O778   1.272       .  A
C768       C1004   1.437       .  S
O769        C775   1.272       .  A
O770        C775   1.272       .  A
C771        C876   1.437       .  S
O772        C774   1.267   1_556  A
O773       Ni784   1.923       .  S
C774        C892   1.436       .  S
C775        C974   1.434       .  S
H776        O777   0.966       .  S
O777       Ni785   1.913       .  S
O777       Ni784   1.917       .  S
Ni779       O781   1.915       .  S
C782        O783   1.266       .  A
C782        C988   1.437       .  S
O787       Ni793   1.931       .  S
O787        C808   1.270       .  A
O788       Ni811   1.913       .  S
O789       Ni793   1.915       .  S
O789       Ni805   1.913       .  S
O789        H812   0.966       .  S
C790        O807   1.274       .  A
C790        O799   1.273       .  A
C790        C834   1.438       .  S
O791       Ni810   1.931       .  S
O791        C797   1.270       .  A
O792       Ni810   1.907       .  S
O792        C794   1.267       .  A
Ni793       O796   1.928       .  S
Ni793       O798   1.905       .  S
C794        C934   1.439       .  S
O795       Ni811   1.914       .  S
O795        C801   1.272       .  A
C797        C820   1.440       .  S
O798        C800   1.267       .  A
C800        O806   1.274       .  A
C800        C850   1.441       .  S
C801        C920   1.436       .  S
O803       Ni811   1.915       .  S
Ni805       O809   1.911       .  S
C808        O809   1.267       .  A
C808        C948   1.438       .  S
C813        C821   1.444       .  S
C813        C814   1.401       .  A
C813        C818   1.403       .  A
C814        C815   1.400       .  A
C814        H823   1.083       .  S
C815        C816   1.402       .  A
C815        H824   1.083       .  S
C816        C819   1.445       .  S
C816        C817   1.402       .  A
C817        C818   1.401       .  A
C817        H825   1.083       .  S
C818        H826   1.083       .  S
C819        C820   1.209       .  T
C821        C822   1.209       .  T
C827        C835   1.443       .  S
C827        C828   1.401       .  A
C827        C832   1.402       .  A
C828        C829   1.399       .  A
C828        H837   1.083       .  S
C829        C830   1.401       .  A
C829        H838   1.083       .  S
C830        C833   1.443       .  S
C830        C831   1.403       .  A
C831        C832   1.401       .  A
C831        H839   1.083       .  S
C832        H840   1.083       .  S
C833        C834   1.208       .  T
C835        C836   1.209       .  T
C841        C849   1.446       .  S
C841        C842   1.402       .  A
C841        C846   1.403       .  A
C842        C843   1.401       .  A
C842        H851   1.083       .  S
C843        C844   1.403       .  A
C843        H852   1.083       .  S
C844        C847   1.446       .  S
C844        C845   1.402       .  A
C845        C846   1.402       .  A
C845        H853   1.083       .  S
C846        H854   1.083       .  S
C847        C848   1.210       .  T
C849        C850   1.210       .  T
C855        C863   1.442       .  S
C855        C856   1.402       .  A
C855        C860   1.402       .  A
C856        C857   1.400       .  A
C856        H865   1.083       .  S
C857        C858   1.401       .  A
C857        H866   1.083       .  S
C858        C861   1.441       .  S
C858        C859   1.402       .  A
C859        C860   1.400       .  A
C859        H867   1.083       .  S
C860        H868   1.083       .  S
C861        C862   1.208       .  T
C863        C864   1.208       .  T
C869        C877   1.441       .  S
C869        C870   1.401       .  A
C869        C874   1.402       .  A
C870        C871   1.399       .  A
C870        H879   1.083       .  S
C871        C872   1.402       .  A
C871        H880   1.083       .  S
C872        C875   1.442       .  S
C872        C873   1.401       .  A
C873        C874   1.400       .  A
C873        H881   1.083       .  S
C874        H882   1.083       .  S
C875        C876   1.207       .  T
C877        C878   1.208       .  T
C883        C891   1.441       .  S
C883        C884   1.402       .  A
C883        C888   1.401       .  A
C884        C885   1.401       .  A
C884        H893   1.083       .  S
C885        C886   1.402       .  A
C885        H894   1.083       .  S
C886        C889   1.441       .  S
C886        C887   1.401       .  A
C887        C888   1.399       .  A
C887        H895   1.083       .  S
C888        H896   1.083       .  S
C889        C890   1.208       .  T
C891        C892   1.207       .  T
C897        C905   1.440       .  S
C897        C898   1.402       .  A
C897        C902   1.401       .  A
C898        C899   1.400       .  A
C898        H907   1.083       .  S
C899        C900   1.401       .  A
C899        H908   1.083       .  S
C900        C903   1.440       .  S
C900        C901   1.402       .  A
C901        C902   1.399       .  A
C901        H909   1.084       .  S
C902        H910   1.083       .  S
C903        C904   1.206       .  T
C905        C906   1.207       .  T
C911        C919   1.441       .  S
C911        C912   1.402       .  A
C911        C916   1.401       .  A
C912        C913   1.400       .  A
C912        H921   1.083       .  S
C913        C914   1.402       .  A
C913        H922   1.083       .  S
C914        C917   1.441       .  S
C914        C915   1.401       .  A
C915        C916   1.399       .  A
C915        H923   1.083       .  S
C916        H924   1.083       .  S
C917        C918   1.208       .  T
C919        C920   1.207       .  T
C925        C933   1.444       .  S
C925        C926   1.402       .  A
C925        C930   1.402       .  A
C926        C927   1.401       .  A
C926        H935   1.083       .  S
C927        C928   1.402       .  A
C927        H936   1.083       .  S
C928        C931   1.444       .  S
C928        C929   1.402       .  A
C929        C930   1.401       .  A
C929        H937   1.083       .  S
C930        H938   1.083       .  S
C931        C932   1.209       .  T
C933        C934   1.208       .  T
C939        C947   1.443       .  S
C939        C940   1.401       .  A
C939        C944   1.402       .  A
C940        C941   1.400       .  A
C940        H949   1.083       .  S
C941        C942   1.401       .  A
C941        H950   1.083       .  S
C942        C945   1.441       .  S
C942        C943   1.401       .  A
C943        C944   1.400       .  A
C943        H951   1.084       .  S
C944        H952   1.083       .  S
C945        C946   1.208       .  T
C947        C948   1.208       .  T
C953        C961   1.441       .  S
C953        C954   1.402       .  A
C953        C958   1.401       .  A
C954        C955   1.400       .  A
C954        H963   1.083       .  S
C955        C956   1.402       .  A
C955        H964   1.083       .  S
C956        C959   1.441       .  S
C956        C957   1.401       .  A
C957        C958   1.399       .  A
C957        H965   1.083       .  S
C958        H966   1.083       .  S
C959        C960   1.207       .  T
C961        C962   1.207       .  T
C967        C975   1.440       .  S
C967        C968   1.401       .  A
C967        C972   1.402       .  A
C968        C969   1.398       .  A
C968        H977   1.083       .  S
C969        C970   1.402       .  A
C969        H978   1.084       .  S
C970        C973   1.440       .  S
C970        C971   1.401       .  A
C971        C972   1.400       .  A
C971        H979   1.083       .  S
C972        H980   1.083       .  S
C973        C974   1.206       .  T
C975        C976   1.207       .  T
C981        C989   1.441       .  S
C981        C982   1.401       .  A
C981        C986   1.402       .  A
C982        C983   1.399       .  A
C982        H991   1.083       .  S
C983        C984   1.402       .  A
C983        H992   1.083       .  S
C984        C987   1.442       .  S
C984        C985   1.402       .  A
C985        C986   1.400       .  A
C985        H993   1.083       .  S
C986        H994   1.083       .  S
C987        C988   1.207       .  T
C989        C990   1.207       .  T
C995       C1003   1.442       .  S
C995        C996   1.401       .  A
C995       C1000   1.402       .  A
C996        C997   1.400       .  A
C996       H1005   1.083       .  S
C997        C998   1.402       .  A
C997       H1006   1.083       .  S
C998       C1001   1.442       .  S
C998        C999   1.401       .  A
C999       C1000   1.400       .  A
C999       H1007   1.084       .  S
C1000      H1008   1.084       .  S
C1001      C1002   1.208       .  T
C1003      C1004   1.207       .  T
