geometry optimzed in LAMMPS
_audit_creation_date              2020-11-30 
_audit_creation_method            'lammps2cif' 
_symmetry_space_group_name_H-M    'P1' 
_symmetry_Int_Tables_number       1 
_symmetry_cell_setting            triclinic 
loop_ 
_symmetry_equiv_pos_as_xyz 
  x,y,z 
_cell_length_a                    29.67934959260628 
_cell_length_b                    30.124702896410678 
_cell_length_c                    29.617242892760366 
_cell_angle_alpha                 90.350840563 
_cell_angle_beta                  89.07482209949858 
_cell_angle_gamma                 89.77572768912533 
loop_ 
_atom_site_label 
_atom_site_type_symbol 
_atom_site_fract_x 
_atom_site_fract_y 
_atom_site_fract_z 
_atom_site_charge 
C1          C  0.36480865  0.63857732  0.63400173    -0.03080
C2          C  0.39953046  0.60715225  0.39765299     0.41870
N3          N  0.44923998  0.58603533  0.44674469     0.00760
C4          C  0.57802731  0.39181412  0.44898321    -0.07120
H5          H  0.40865314  0.36445844  0.46996716     0.06250
C6          C  0.41653326  0.44829633  0.61898966    -0.07470
Co7        Co  0.49637393  0.50166683  0.41855684     0.74180
N8          N  0.44746929  0.42315836  0.45632469    -0.26650
Co9        Co  0.49670375  0.42526162  0.50705958     0.74070
C10         C  0.39617257  0.40578870  0.60330471     0.41970
N11         N  0.44843940  0.56166172  0.58375781     0.00370
N12         N  0.44594456  0.42920400  0.55525158     0.00480
N13         N  0.56843367  0.43292556  0.38668979    -0.47500
H14         H  0.40689029  0.53994657  0.35986963     0.06240
N15         N  0.44655895  0.45255957  0.42355121     0.00760
N16         N  0.54543402  0.42750986  0.55961052     0.00500
C17         C  0.59577005  0.41172440  0.61022687     0.42110
N18         N  0.44725084  0.58901601  0.54920567    -0.26100
C19         C  0.57689368  0.56494677  0.38177534    -0.07020
N20         N  0.42130533  0.61866509  0.43591843    -0.47210
N21         N  0.57414724  0.39615612  0.57288084    -0.47430
C22         C  0.59787700  0.60767867  0.39578050     0.41880
N23         N  0.54341661  0.44852846  0.42069214     0.00750
N24         N  0.54697609  0.58970904  0.54954741    -0.26130
N25         N  0.44781778  0.55276607  0.41774129    -0.26620
N26         N  0.54688428  0.56062480  0.58255590     0.00390
H27         H  0.58559805  0.64753933  0.53618683     0.06280
H28         H  0.58346815  0.48000155  0.64489957     0.06320
N29         N  0.54626374  0.42293856  0.45656519    -0.26670
N30         N  0.44694955  0.46000981  0.58710538    -0.26280
N31         N  0.54814457  0.58469192  0.44617770     0.00760
C32         C  0.39467055  0.40486604  0.40540181     0.42150
C33         C  0.41319143  0.61773555  0.55664612    -0.07530
N34         N  0.54580516  0.46207952  0.58701323    -0.26280
H35         H  0.41167704  0.46557592  0.65079472     0.06300
N36         N  0.41617207  0.44274874  0.39275870    -0.47500
H37         H  0.40330383  0.64312471  0.53317721     0.06290
C38         C  0.59936344  0.60768686  0.60230635     0.41990
C39         C  0.41571099  0.56167675  0.38746294    -0.07030
Co40       Co  0.49794919  0.58776987  0.49789318     0.73820
N41         N  0.41931521  0.57281248  0.61647198    -0.47220
C42         C  0.59339849  0.39837543  0.40208316     0.42250
N43         N  0.57738463  0.61672093  0.43618819    -0.47210
Co44       Co  0.49692584  0.51116110  0.58559771     0.73890
C45         C  0.57747668  0.45652395  0.61809134    -0.07540
C46         C  0.41522885  0.39274256  0.44867785    -0.07100
N47         N  0.54704633  0.55320877  0.41483813    -0.26630
N48         N  0.41596485  0.39737348  0.56296302    -0.47390
H49         H  0.58531018  0.36510608  0.47182507     0.06260
C50         C  0.57894382  0.62001785  0.55831653    -0.07510
Cl51       Cl  0.49733845  0.50656070  0.50213225    -0.50510
C52         C  0.39551648  0.60869249  0.60270532     0.42020
H53         H  0.58106872  0.54739455  0.35034567     0.06230
N54         N  0.57717581  0.56995344  0.61382546    -0.47220
C55         C  0.62742820  0.38378693  0.64110191    -0.03080
C56         C  0.36707031  0.37627461  0.37163938    -0.03080
C57         C  0.63015201  0.64098640  0.36921265    -0.03080
C58         C  0.37087617  0.63935569  0.36784980    -0.03080
C59         C  0.62715525  0.37000397  0.37296308    -0.03080
C60         C  0.36859253  0.37207308  0.63181436    -0.03080
C61         C  0.62899743  0.63590639  0.63596615    -0.03080
C62         C  0.26490927  0.24492290  0.00496464    -0.00030
C63         C  0.23964796  0.28330103  0.00802404    -0.00030
C64         C  0.21750702  0.00593829  0.25164596    -0.00030
C65         C  0.24705346  0.00342147  0.21573409    -0.00030
C66         C  0.99644430  0.22770848  0.26295235    -0.00030
C67         C  0.99563105  0.26714599  0.23933535    -0.00030
C68         C  0.49822899  0.26474952  0.27128492    -0.00030
C69         C  0.49466638  0.22567864  0.24670480    -0.00030
C70         C  0.25553509  0.27698625  0.50161190    -0.00030
C71         C  0.21868385  0.24938705  0.49886528    -0.00030
C72         C  0.25454411  0.50964822  0.28434001    -0.00030
C73         C  0.23268084  0.50551552  0.24415682    -0.00030
C74         C  0.25942979  0.77922965  0.00048932    -0.00030
C75         C  0.22847495  0.74551356  0.00299888    -0.00030
C76         C  0.76585142  0.27111273  0.00780728    -0.00030
C77         C  0.73614171  0.23638200  0.00644100    -0.00030
C78         C  0.99731762  0.27383819  0.76731006    -0.00030
C79         C  0.99864390  0.24190086  0.73395072    -0.00030
C80         C  0.72589452  0.50602362  0.26469933    -0.00030
C81         C  0.76601000  0.50469864  0.24061631    -0.00030
C82         C  0.28606943  0.50622008  0.75664980    -0.00030
C83         C  0.24969346  0.50396592  0.78659573    -0.00030
C84         C  0.87180610  0.63635905  0.87555184    -0.03080
C85         C  0.90545915  0.60616403  0.90131368     0.41870
N86         N  0.95436416  0.58478841  0.95062858     0.00760
C87         C  0.07955819  0.38694983  0.94589814    -0.07120
H88         H  0.91094883  0.36306965  0.97394968     0.06250
C89         C  0.92242345  0.44748958  0.12416818    -0.07470
Co90       Co  0.00066707  0.49935825  0.92310722     0.74180
N91         N  0.95109189  0.42054901  0.95984527    -0.26650
Co92       Co  0.00136078  0.42151294  0.00997547     0.74070
C93         C  0.90317202  0.40413751  0.11114511     0.41970
N94         N  0.95177720  0.55926671  0.08715665     0.00370
N95         N  0.95280747  0.42490870  0.06151831     0.00480
N96         N  0.07817668  0.43771256  0.89056732    -0.47500
H97         H  0.91154119  0.53767729  0.86500298     0.06240
N98         N  0.95138320  0.44934670  0.92640507     0.00760
N99         N  0.05131763  0.42370096  0.06119245     0.00500
C100        C  0.10225610  0.40603107  0.11122032     0.42110
N101        N  0.95062589  0.58660848  0.05256587    -0.26100
C102        C  0.08033852  0.55978825  0.88878576    -0.07020
N103        N  0.92807428  0.61852699  0.93879231    -0.47210
N104        N  0.08009961  0.39198720  0.07355839    -0.47430
C105        C  0.10122035  0.60206619  0.90309647     0.41880
N106        N  0.04979262  0.44853902  0.92411415     0.00750
N107        N  0.04950337  0.58778555  0.05377179    -0.26130
N108        N  0.95192804  0.55076349  0.92257356    -0.26620
N109        N  0.05165784  0.55725378  0.08527001     0.00390
H110        H  0.08564674  0.64892694  0.04320742     0.06280
H111        H  0.09248384  0.47513516  0.14513422     0.06320
N112        N  0.04974081  0.41906900  0.95697201    -0.26670
N113        N  0.95307184  0.45725871  0.09183280    -0.26280
N114        N  0.05222122  0.57993580  0.95316099     0.00760
C115        C  0.89986677  0.40169518  0.90740890     0.42150
C116        C  0.91650238  0.61556841  0.05900778    -0.07530
N117        N  0.05196229  0.45795523  0.08912722    -0.26280
H118        H  0.91642976  0.46674458  0.15464841     0.06300
N119        N  0.92196281  0.43914000  0.89466822    -0.47500
H120        H  0.90883002  0.64171657  0.03565919     0.06290
C121        C  0.10480019  0.60328787  0.10227292     0.41990
C122        C  0.92026248  0.55989962  0.89206138    -0.07030
Co123      Co  0.00158523  0.58515547  0.00257363     0.73820
N124        N  0.92164708  0.57060106  0.11902549    -0.47220
C125        C  0.09861192  0.39888822  0.90115698     0.42250
N126        N  0.08283541  0.61053692  0.94426738    -0.47210
Co127      Co  0.00204623  0.50807339  0.08901804     0.73890
C128        C  0.08457311  0.45138107  0.11922767    -0.07540
C129        C  0.91845429  0.39065570  0.95207309    -0.07100
N130        N  0.05020532  0.54931455  0.92128845    -0.26630
N131        N  0.92371398  0.39306586  0.07164874    -0.47390
H132        H  0.08494097  0.35707943  0.96521373     0.06260
C133        C  0.08044260  0.61896231  0.06249711    -0.07510
Cl134      Cl  0.00128473  0.50342514  0.00617546    -0.50510
C135        C  0.89741030  0.60635661  0.10449346     0.42020
H136        H  0.08556096  0.54065142  0.85826958     0.06230
N137        N  0.08397552  0.56521545  0.11477216    -0.47220
C138        C  0.87093897  0.37403934  0.13894815    -0.03080
C139        C  0.13042382  0.36988209  0.86989930    -0.03080
C140        C  0.12849700  0.63586619  0.87379790    -0.03080
C141        C  0.86763672  0.37479542  0.87611788    -0.03080
C142        C  0.86893942  0.63749851  0.13728853    -0.03080
C143        C  0.71839338  0.50985844  0.75803126    -0.00030
C144        C  0.75608259  0.50998830  0.78500908    -0.00030
C145        C  0.13750900  0.63082518  0.13077712    -0.03080
C146        C  0.12893288  0.37497490  0.14456443    -0.03080
C147        C  0.22943462  0.00818230  0.73740165    -0.00030
C148        C  0.25639937  0.00497784  0.77507850    -0.00030
C149        C  0.49883321  0.77569039  0.23389546    -0.00030
C150        C  0.49986689  0.74423924  0.26671032    -0.00030
C151        C  0.49373705  0.28116497  0.74939504    -0.00030
C152        C  0.49640567  0.24895883  0.78196620    -0.00030
C153        C  0.62452790  0.14096906  0.87893607    -0.03080
C154        C  0.39419576  0.11077254  0.91032473     0.41870
N155        N  0.44459281  0.06080197  0.92882818     0.00760
C156        C  0.44828921  0.91844152  0.11142559    -0.07120
H157        H  0.46677194  0.09504556  0.14865715     0.06250
C158        C  0.62407386  0.06820379  0.07103989    -0.07470
Co159      Co  0.41616421  0.00710960  0.00949349     0.74180
N160        N  0.45279883  0.05335409  0.09107227    -0.26650
Co161      Co  0.50397009  0.00375642  0.08736093     0.74070
C162        C  0.60949659  0.09364075  0.11178192     0.41970
N163        N  0.58047529  0.05470019  0.95265295     0.00370
N164        N  0.55526874  0.05178650  0.08649894     0.00480
N165        N  0.38743580  0.92828891  0.06793593    -0.47500
H166        H  0.35329701  0.09464136  0.97565068     0.06240
N167        N  0.41959149  0.05329331  0.06203325     0.00760
N168        N  0.55530278  0.95492164  0.08438265     0.00500
C169        C  0.60741008  0.90890932  0.10649098     0.42110
N170        N  0.54547788  0.05805521  0.92588497    -0.26100
C171        C  0.38135225  0.93040919  0.94559297    -0.07020
N172        N  0.43470343  0.09205399  0.89895597    -0.47210
N173        N  0.56805329  0.92934909  0.11828753    -0.47430
C174        C  0.38991139  0.91580198  0.89820544     0.41880
N175        N  0.41953003  0.95711881  0.05782245     0.00750
N176        N  0.54522721  0.95941212  0.91825481    -0.26130
N177        N  0.41392687  0.05829079  0.96125359    -0.26620
N178        N  0.57856666  0.95795453  0.94724758     0.00390
H179        H  0.53023435  0.92019351  0.86001495     0.06280
H180        H  0.64426565  0.91630455  0.03697785     0.06320
N181        N  0.45424011  0.95404518  0.08489837    -0.26670
N182        N  0.58776157  0.04691165  0.05602323    -0.26280
N183        N  0.44116549  0.96317508  0.92047587     0.00760
C184        C  0.40157120  0.10726683  0.10810620     0.42150
C185        C  0.55039973  0.09442800  0.90059232    -0.07530
N186        N  0.58379846  0.95291405  0.04985212    -0.26280
H187        H  0.65679265  0.06614626  0.05459945     0.06300
N188        N  0.38851492  0.08364793  0.07153129    -0.47500
H189        H  0.52652692  0.10574746  0.87598051     0.06290
C190        C  0.59638833  0.90529790  0.89935231     0.41990
C191        C  0.38213434  0.08929856  0.95375630    -0.07030
Co192      Co  0.49445656  0.01024678  0.92254767     0.73820
N193        N  0.61139039  0.08547500  0.94367696    -0.47220
C194        C  0.40198030  0.90296362  0.10252425     0.42250
N195        N  0.42836445  0.93768191  0.88591942    -0.47210
Co196      Co  0.58306376  0.00294597  0.00076900     0.73890
C197        C  0.61610222  0.92311470  0.05925958    -0.07540
C198        C  0.44491451  0.08670844  0.12108265    -0.07100
N199        N  0.41304740  0.96070535  0.95528942    -0.26630
N200        N  0.56650205  0.07950892  0.11962088    -0.47390
H201        H  0.47157990  0.90875931  0.13719055     0.06260
C202        C  0.55262347  0.92673577  0.88758046    -0.07510
Cl203      Cl  0.49944859  0.00585546  0.00500952    -0.50510
C204        C  0.59495319  0.11218319  0.91073351     0.42020
H205        H  0.35397997  0.92206888  0.96829047     0.06230
N206        N  0.60926997  0.92730150  0.93690619    -0.47220
C207        C  0.63596054  0.87909555  0.13896905    -0.03080
C208        C  0.36302144  0.88101032  0.86882725    -0.03080
C209        C  0.36338039  0.13621224  0.87558403    -0.03080
C210        C  0.62606450  0.86862918  0.87490454    -0.03080
C211        C  0.36934457  0.87476001  0.13182435    -0.03080
C212        C  0.49604770  0.78381633  0.75891478    -0.00030
C213        C  0.49512434  0.74711418  0.73149506    -0.00030
C214        C  0.36781993  0.13766603  0.13419343    -0.03080
C215        C  0.63541359  0.13031538  0.13989478    -0.03080
C216        C  0.00774310  0.77562504  0.26015504    -0.00030
C217        C  0.00702681  0.74612202  0.22503164    -0.00030
C218        C  0.74996342  0.00405161  0.23448876    -0.00030
C219        C  0.77916400  0.00424708  0.26998336    -0.00030
C220        C  0.76907690  0.24835349  0.50811303    -0.00030
C221        C  0.74364385  0.28729036  0.50833912    -0.00030
C222        C  0.27436525  0.74842153  0.50231449    -0.00030
C223        C  0.24708610  0.78517524  0.50291421    -0.00030
C224        C  0.87254305  0.13240324  0.38153955    -0.03080
C225        C  0.89863318  0.09693872  0.40820159     0.41870
N226        N  0.94618706  0.04614820  0.42752713     0.00760
C227        C  0.93925630  0.92014450  0.62541042    -0.07120
H228        H  0.94546038  0.07606004  0.65857831     0.06250
C229        C  0.10518774  0.08647416  0.56040252    -0.07470
Co230      Co  0.91273866  0.99619049  0.51072196     0.74180
N231        N  0.94192702  0.04563625  0.59338469    -0.26650
Co232      Co  0.99760449  0.00051921  0.59240009     0.74070
C233        C  0.09472981  0.10631264  0.60496177     0.41970
N234        N  0.07633376  0.05160157  0.45334780     0.00370
N235        N  0.04777694  0.05221711  0.58964979     0.00480
N236        N  0.88365884  0.91947318  0.57494266    -0.47500
H237        H  0.84598014  0.07009175  0.45951088     0.06240
N238        N  0.91111264  0.04701619  0.56154077     0.00760
N239        N  0.05197240  0.95405581  0.59030851     0.00500
C240        C  0.10277520  0.90418175  0.60825792     0.42110
N241        N  0.04865367  0.04372721  0.42009439    -0.26100
C242        C  0.88542626  0.91449163  0.45165122    -0.07020
N243        N  0.93948387  0.07871197  0.39796504    -0.47210
N244        N  0.06367076  0.92482141  0.62179294    -0.47430
C245        C  0.90148399  0.89437979  0.40894945     0.41880
N246        N  0.91527342  0.94886990  0.56365546     0.00750
N247        N  0.04642179  0.94853761  0.42543750    -0.26130
N248        N  0.91229469  0.04179279  0.45672877    -0.26620
N249        N  0.08071303  0.95209276  0.45288793     0.00390
H250        H  0.03239546  0.90834884  0.36767974     0.06280
H251        H  0.14158835  0.91958230  0.54091865     0.06320
N252        N  0.94805272  0.95020894  0.59325844    -0.26670
N253        N  0.07615102  0.05301536  0.55473093    -0.26280
N254        N  0.94599384  0.94782007  0.42868643     0.00760
C255        C  0.88823827  0.09730877  0.61067536     0.42150
C256        C  0.06358131  0.06620686  0.38399750    -0.07530
N257        N  0.08145158  0.95514633  0.55646423    -0.26280
H258        H  0.13388654  0.09282726  0.53844425     0.06300
N259        N  0.87835575  0.07674920  0.57087703    -0.47500
H260        H  0.05045119  0.06227326  0.35042113     0.06290
C261        C  0.10042186  0.90016902  0.40405126     0.41990
C262        C  0.87909208  0.06857448  0.44377940    -0.07030
Co263      Co  0.99654392  0.99661720  0.42531293     0.73820
N264        N  0.10640173  0.08311535  0.44323437    -0.47220
C265        C  0.89551685  0.89908889  0.61406718     0.42250
N266        N  0.93835286  0.91806582  0.39670639    -0.47210
Co267      Co  0.07907219  0.00308192  0.50453342     0.73890
C268        C  0.11358193  0.92472652  0.56394555    -0.07540
C269        C  0.92828335  0.07284882  0.62685994    -0.07100
N270        N  0.91508629  0.94680720  0.46116428    -0.26630
N271        N  0.05882561  0.08233992  0.62109020    -0.47390
H272        H  0.96080056  0.91613832  0.65397495     0.06260
C273        C  0.05444954  0.91601406  0.39521531    -0.07510
Cl274      Cl  0.99633482  0.99935187  0.50865341    -0.50510
C275        C  0.09950640  0.09612631  0.39983859     0.42020
H276        H  0.85472046  0.90787598  0.47054202     0.06230
N277        N  0.11413361  0.92463520  0.44052109    -0.47220
C278        C  0.87412314  0.86736939  0.37489700    -0.03080
C279        C  0.13321780  0.87356236  0.37142482    -0.03080
C280        C  0.13253666  0.87248469  0.63878002    -0.03080
C281        C  0.86167586  0.13514740  0.63737011    -0.03080
C282        C  0.86177002  0.87094351  0.64463156    -0.03080
C283        C  0.76779853  0.76720921  0.50483094    -0.00030
C284        C  0.73383340  0.73641297  0.50691197    -0.00030
C285        C  0.12747615  0.13126167  0.37167576    -0.03080
C286        C  0.12890283  0.13560526  0.63252159    -0.03080
C287        C  0.99727266  0.77061386  0.73763274    -0.00030
C288        C  0.99985307  0.74290984  0.77406446    -0.00030
C289        C  0.72629400  0.00378415  0.77584375    -0.00030
C290        C  0.75212194  0.00776481  0.73679203    -0.00030
C291        C  0.76569087  0.74082495  0.00785306    -0.00030
C292        C  0.72514102  0.76394006  0.00722842    -0.00030
C293        C  0.88975670  0.84160389  0.67684186    -0.06710
C294        C  0.92004276  0.86353727  0.70556267    -0.17840
C295        C  0.95233583  0.84081839  0.72997413     0.10480
C296        C  0.95483996  0.79424373  0.72628074    -0.06640
C297        C  0.92084664  0.77187034  0.70341104    -0.17870
C298        C  0.88629019  0.79455702  0.68198404     0.10520
S299        S  0.99118877  0.87226072  0.76391086    -0.32840
S300        S  0.83606734  0.76257567  0.67051549    -0.32840
H301        H  0.85509953  0.71993163  0.67383867     0.28520
H302        H  0.98059513  0.91445838  0.74687942     0.28520
H303        H  0.91728549  0.89910205  0.70991504     0.19110
H304        H  0.92250721  0.73661795  0.69922034     0.19120
C305        C  0.83176334  0.90388541  0.67234716    -0.06710
C306        C  0.80862070  0.93537046  0.64681227    -0.17840
C307        C  0.77722608  0.96412866  0.66595019     0.10480
C308        C  0.77399673  0.96876400  0.71367411    -0.06640
C309        C  0.79829508  0.93901456  0.73993259    -0.17870
C310        C  0.82284822  0.90391905  0.72043084     0.10520
S311        S  0.73873512  0.98649451  0.62566361    -0.32840
S312        S  0.83251157  0.85767090  0.75816910    -0.32840
H313        H  0.83303633  0.88211699  0.79879941     0.28520
H314        H  0.70170034  0.98738402  0.65510984     0.28520
H315        H  0.81031106  0.93361070  0.61038050     0.19110
H316        H  0.79625247  0.94194973  0.77629739     0.19120
C317        C  0.83310764  0.84192833  0.61163252    -0.06710
C318        C  0.85766079  0.81404717  0.58170451    -0.17840
C319        C  0.83632973  0.78322314  0.55395830     0.10480
C320        C  0.78947132  0.78684402  0.54618025    -0.06640
C321        C  0.76426156  0.81393265  0.57561099    -0.17870
C322        C  0.78467849  0.83797470  0.61049540     0.10520
S323        S  0.86893962  0.73429037  0.54034529    -0.32840
S324        S  0.74576813  0.85391595  0.65499499    -0.32840
H325        H  0.77060921  0.83290501  0.68862772     0.28520
H326        H  0.83164384  0.70691492  0.53295129     0.28520
H327        H  0.89400969  0.81224887  0.58435854     0.19110
H328        H  0.72789928  0.81438000  0.57306906     0.19120
C329        C  0.83149675  0.10694789  0.67003560    -0.06710
C330        C  0.79086540  0.08960361  0.65289647    -0.17840
C331        C  0.75824554  0.07089797  0.68160035     0.10480
C332        C  0.77193831  0.05116595  0.72185510    -0.06640
C333        C  0.81524505  0.06174387  0.73705773    -0.17870
C334        C  0.84368228  0.09174002  0.71392442     0.10520
S335        S  0.69966131  0.07730086  0.66690007    -0.32840
S336        S  0.89710733  0.10344736  0.73964338    -0.32840
H337        H  0.88457996  0.09119197  0.78386725     0.28520
H338        H  0.68196064  0.05394443  0.70360520     0.28520
H339        H  0.78148604  0.09609680  0.61842106     0.19110
H340        H  0.82836924  0.04412024  0.76561894     0.19120
C341        C  0.03700156  0.78706705  0.71165132    -0.06710
C342        C  0.07208242  0.80608149  0.73542701    -0.17840
C343        C  0.10484444  0.83190113  0.71427820     0.10480
C344        C  0.10058603  0.84263187  0.66705517    -0.06640
C345        C  0.06539518  0.82211124  0.64337843    -0.17870
C346        C  0.03545652  0.79311112  0.66435369     0.10520
S347        S  0.15209472  0.84448173  0.75003308    -0.32840
S348        S  0.99735183  0.76384602  0.62800509    -0.32840
H349        H  0.99258152  0.72685579  0.65623134     0.28520
H350        H  0.12811389  0.84689208  0.79136469     0.28520
H351        H  0.07308905  0.80203473  0.77159831     0.19110
H352        H  0.06280259  0.82670285  0.60724619     0.19120
C353        C  0.78619783  0.78408505  0.46101245    -0.06710
C354        C  0.82772152  0.76780086  0.44642352    -0.17840
C355        C  0.85832847  0.79663568  0.42593922     0.10480
C356        C  0.84228531  0.83460697  0.40159623    -0.06640
C357        C  0.79484627  0.84035884  0.40353902    -0.17870
C358        C  0.76963017  0.82229760  0.43917617     0.10520
S359        S  0.91521241  0.78535885  0.44196890    -0.32840
S360        S  0.71869023  0.85136151  0.45556055    -0.32840
H361        H  0.72610178  0.84847170  0.50191266     0.28520
H362        H  0.91972993  0.82594748  0.46501644     0.28520
H363        H  0.83931620  0.73621021  0.45856196     0.19110
H364        H  0.77683706  0.86114745  0.38072963     0.19120
C365        C  0.16398561  0.84812260  0.40435072    -0.06710
C366        C  0.21104253  0.85636498  0.40553459    -0.17840
C367        C  0.24057744  0.83120438  0.43132882     0.10480
C368        C  0.22272407  0.80061653  0.46239691    -0.06640
C369        C  0.17586242  0.79431584  0.46409420    -0.17870
C370        C  0.14639253  0.81801969  0.43722843     0.10520
S371        S  0.30007580  0.84134379  0.42252380    -0.32840
S372        S  0.08731902  0.80810726  0.45009885    -0.32840
H373        H  0.06822057  0.82143142  0.40977915     0.28520
H374        H  0.31642566  0.81822333  0.45950784     0.28520
H375        H  0.22617188  0.88307678  0.38683362     0.19110
H376        H  0.16155123  0.77189121  0.48889636     0.19120
C377        C  0.16472181  0.84473216  0.60718044    -0.06710
C378        C  0.19554143  0.86995756  0.58140565    -0.17840
C379        C  0.22632502  0.85122952  0.55135257     0.10480
C380        C  0.22730834  0.80485778  0.54497512    -0.06640
C381        C  0.19955738  0.77850787  0.57214432    -0.17870
C382        C  0.16939778  0.79706401  0.60402694     0.10520
S383        S  0.26299858  0.88948302  0.52236797    -0.32840
S384        S  0.14473852  0.75729962  0.64260089    -0.32840
H385        H  0.14737985  0.71974138  0.61418742     0.28520
H386        H  0.30011048  0.86079960  0.52061553     0.28520
H387        H  0.19739019  0.90550724  0.58659069     0.19110
H388        H  0.20074538  0.74288363  0.56734402     0.19120
C389        C  0.78325927  0.21723275  0.46754967    -0.06710
C390        C  0.80121042  0.17573109  0.48066832    -0.17840
C391        C  0.84004561  0.15921915  0.46030121     0.10480
C392        C  0.84558702  0.16443058  0.41327944    -0.06640
C393        C  0.82053292  0.19926947  0.39423111    -0.17870
C394        C  0.79146550  0.22681751  0.42043711     0.10520
S395        S  0.88366435  0.14712412  0.50045662    -0.32840
S396        S  0.75754303  0.26044168  0.38517337    -0.32840
H397        H  0.71893699  0.23479747  0.39406733     0.28520
H398        H  0.92238918  0.13876462  0.47477136     0.28520
H399        H  0.79276676  0.16099567  0.51265128     0.19110
H400        H  0.82239715  0.20399840  0.35800540     0.19120
C401        C  0.83344676  0.17002198  0.60873825    -0.06710
C402        C  0.85747679  0.20187364  0.58261204    -0.17840
C403        C  0.83621101  0.23432881  0.55665071     0.10480
C404        C  0.78924184  0.23301071  0.55142661    -0.06640
C405        C  0.76467760  0.20368580  0.57888428    -0.17870
C406        C  0.78595211  0.17994368  0.61317047     0.10520
S407        S  0.87097248  0.27295334  0.52591554    -0.32840
S408        S  0.75209954  0.17825236  0.66483702    -0.32840
H409        H  0.78676246  0.17565441  0.69609042     0.28520
H410        H  0.83857221  0.30712488  0.52782397     0.28520
H411        H  0.89358217  0.20305959  0.58303222     0.19110
H412        H  0.72826279  0.20330521  0.57679078     0.19120
C413        C  0.84984224  0.90434479  0.34664110    -0.06710
C414        C  0.81368161  0.92925297  0.36573952    -0.17840
C415        C  0.78482294  0.95488486  0.33908948     0.10480
C416        C  0.79634831  0.96358389  0.29347587    -0.06640
C417        C  0.83699473  0.94563461  0.27720388    -0.17870
C418        C  0.86441327  0.91855022  0.30304959     0.10520
S419        S  0.73332948  0.97446207  0.36543700    -0.32840
S420        S  0.92127101  0.91392344  0.28180818    -0.32840
H421        H  0.93792789  0.94385844  0.31391333     0.28520
H422        H  0.71014398  0.98048281  0.32489724     0.28520
H423        H  0.80549315  0.92619019  0.40131273     0.19110
H424        H  0.85069590  0.95648887  0.24549947     0.19120
C425        C  0.79814926  0.04593589  0.28867539    -0.06710
C426        C  0.77416572  0.06734963  0.32364962    -0.17840
C427        C  0.79480965  0.09607338  0.35429115     0.10480
C428        C  0.84255252  0.10182974  0.35177312    -0.06640
C429        C  0.86632613  0.07631403  0.31859671    -0.17870
C430        C  0.84448656  0.05391693  0.28440348     0.10520
S431        S  0.75857520  0.11611331  0.39947528    -0.32840
S432        S  0.87751428  0.03883430  0.23508323    -0.32840
H433        H  0.84038166  0.03588402  0.20649704     0.28520
H434        H  0.71876436  0.11730483  0.37424639     0.28520
H435        H  0.73960527  0.05849222  0.33010890     0.19110
H436        H  0.90267928  0.07852875  0.31593257     0.19120
C437        C  0.10764446  0.84310702  0.33631862    -0.06710
C438        C  0.07962022  0.86591138  0.30570449    -0.17840
C439        C  0.05208728  0.84478263  0.27484898     0.10480
C440        C  0.05044811  0.79828685  0.27349712    -0.06640
C441        C  0.08308523  0.77472239  0.29706166    -0.17870
C442        C  0.11141651  0.79565906  0.32842916     0.10520
S443        S  0.01940686  0.88018302  0.23871590    -0.32840
S444        S  0.14625048  0.75582867  0.35709391    -0.32840
H445        H  0.18657182  0.77912750  0.35754126     0.28520
H446        H  0.99114198  0.84825385  0.21959708     0.28520
H447        H  0.07745358  0.90153360  0.30604036     0.19110
H448        H  0.08294362  0.73878080  0.29494368     0.19120
C449        C  0.96748066  0.78805495  0.28941868    -0.06710
C450        C  0.92449647  0.79902491  0.27313214    -0.17840
C451        C  0.89138641  0.81747631  0.30263097     0.10480
C452        C  0.90515781  0.83745107  0.34424004    -0.06640
C453        C  0.94926830  0.82734727  0.35803816    -0.17870
C454        C  0.97472028  0.79557863  0.33547822     0.10520
S455        S  0.83412872  0.81794362  0.28343502    -0.32840
S456        S  0.00945933  0.75987926  0.36902088    -0.32840
H457        H  0.00937393  0.72432094  0.33795337     0.28520
H458        H  0.81722673  0.79716829  0.32243731     0.28520
H459        H  0.91614146  0.79287739  0.23827860     0.19110
H460        H  0.96224036  0.83880899  0.38982151     0.19120
C461        C  0.73233294  0.04594869  0.21346690    -0.06710
C462        C  0.70194176  0.07219730  0.23847552    -0.17840
C463        C  0.67365117  0.10374026  0.21884667     0.10480
C464        C  0.67034341  0.10521397  0.17019794    -0.06640
C465        C  0.70369393  0.08063246  0.14591269    -0.17870
C466        C  0.73462053  0.05239217  0.16649745     0.10520
S467        S  0.64704140  0.13863130  0.26192080    -0.32840
S468        S  0.77552563  0.02348346  0.13148293    -0.32840
H469        H  0.76459594  0.04285854  0.08996328     0.28520
H470        H  0.64071353  0.17767949  0.23801750     0.28520
H471        H  0.69752303  0.06601063  0.27395132     0.19110
H472        H  0.70559743  0.08324277  0.10971018     0.19120
C473        C  0.66468902  0.89431886  0.84878212    -0.06710
C474        C  0.66967277  0.89138360  0.80117979    -0.17840
C475        C  0.68852415  0.92598921  0.77584150     0.10480
C476        C  0.71200773  0.96050848  0.79777269    -0.06640
C477        C  0.71714028  0.95665566  0.84484707    -0.17870
C478        C  0.69458040  0.92427162  0.87028999     0.10520
S479        S  0.67446943  0.92645605  0.71724228    -0.32840
S480        S  0.70776812  0.92214284  0.92942493    -0.32840
H481        H  0.73425247  0.88361620  0.92407014     0.28520
H482        H  0.66052735  0.97092439  0.71806994     0.28520
H483        H  0.65493682  0.86434326  0.78252044     0.19110
H484        H  0.73724836  0.98038201  0.86288525     0.19120
C485        C  0.69353820  0.77593661  0.96791126    -0.06710
C486        C  0.65139668  0.79566862  0.97940582    -0.17840
C487        C  0.62849457  0.82474867  0.95119944     0.10480
C488        C  0.64845939  0.83666911  0.90901103    -0.06640
C489        C  0.68644145  0.81104212  0.89446855    -0.17870
C490        C  0.70478926  0.77715697  0.92140216     0.10520
S491        S  0.57074865  0.83795307  0.96737131    -0.32840
S492        S  0.71780241  0.72681671  0.89054031    -0.32840
H493        H  0.70563892  0.69824202  0.92611040     0.28520
H494        H  0.57551933  0.83259458  0.01423456     0.28520
H495        H  0.63518560  0.78826406  0.01104225     0.19110
H496        H  0.69708344  0.81257156  0.85936090     0.19120
C497        C  0.53921993  0.80266522  0.77498479    -0.06710
C498        C  0.56434609  0.77608522  0.80350922    -0.17840
C499        C  0.58855503  0.79442819  0.83912781     0.10480
C500        C  0.59588397  0.84185452  0.84111506    -0.06640
C501        C  0.57458323  0.86721269  0.80749220    -0.17870
C502        C  0.54564746  0.84892821  0.77621273     0.10520
S503        S  0.60161548  0.75406158  0.88193573    -0.32840
S504        S  0.51558953  0.88742499  0.74128605    -0.32840
H505        H  0.50576190  0.85720712  0.70711265     0.28520
H506        H  0.56321132  0.72729825  0.87681511     0.28520
H507        H  0.55839162  0.74062581  0.80296109     0.19110
H508        H  0.58043098  0.90261513  0.80555874     0.19120
C509        C  0.45641470  0.80010310  0.78637971    -0.06710
C510        C  0.46306329  0.80453744  0.83339267    -0.17840
C511        C  0.43548225  0.83086071  0.86091871     0.10480
C512        C  0.39529995  0.84862914  0.84280697    -0.06640
C513        C  0.38347138  0.83339805  0.79886530    -0.17870
C514        C  0.41518445  0.81502533  0.76907218     0.10520
S515        S  0.45456530  0.83798563  0.91831832    -0.32840
S516        S  0.40095100  0.81714204  0.71011464    -0.32840
H517        H  0.44502768  0.81761976  0.69283803     0.28520
H518        H  0.41259573  0.84095081  0.94024253     0.28520
H519        H  0.49197347  0.78958062  0.84894342     0.19110
H520        H  0.35062338  0.83998919  0.78514503     0.19120
C521        C  0.71239876  0.78808152  0.04914284    -0.06710
C522        C  0.72533438  0.83255050  0.05146861    -0.17840
C523        C  0.70239216  0.86312989  0.07911718     0.10480
C524        C  0.66687979  0.84786129  0.10894582    -0.06640
C525        C  0.66093485  0.80101536  0.11116663    -0.17870
C526        C  0.67908306  0.77224423  0.07918442     0.10520
S527        S  0.72441307  0.91935587  0.07427896    -0.32840
S528        S  0.65030996  0.71931658  0.07328708    -0.32840
H529        H  0.67357035  0.70293750  0.03501713     0.28520
H530        H  0.69194763  0.94353385  0.09877769     0.28520
H531        H  0.75097074  0.84447308  0.02809133     0.19110
H532        H  0.63920346  0.78527997  0.13562299     0.19120
C533        C  0.66455992  0.90789004  0.17181359    -0.06710
C534        C  0.71132906  0.89868763  0.17574944    -0.17840
C535        C  0.74101950  0.92806926  0.19574815     0.10480
C536        C  0.72363542  0.96415837  0.22106778    -0.06640
C537        C  0.67663129  0.96776958  0.22618501    -0.17870
C538        C  0.64702959  0.94207908  0.20093005     0.10520
S539        S  0.79948430  0.91814573  0.18215821    -0.32840
S540        S  0.58861359  0.95747805  0.20893464    -0.32840
H541        H  0.57103964  0.91481461  0.21162723     0.28520
H542        H  0.81263270  0.96247494  0.18398008     0.28520
H543        H  0.72642917  0.86935255  0.16083798     0.19110
H544        H  0.66254520  0.99365885  0.24770139     0.19120
C545        C  0.70478386  0.04312103  0.79813331    -0.06710
C546        C  0.65868375  0.04767905  0.79136769    -0.17840
C547        C  0.63177515  0.07711114  0.81644592     0.10480
C548        C  0.65160472  0.10539009  0.85003840    -0.06640
C549        C  0.69732814  0.09631917  0.85985655    -0.17870
C550        C  0.72426862  0.06734926  0.83371574     0.10520
S551        S  0.57239561  0.07469378  0.80341354    -0.32840
S552        S  0.78249759  0.06216839  0.84976195    -0.32840
H553        H  0.79201392  0.02135542  0.82869117     0.28520
H554        H  0.57734490  0.06085205  0.75811509     0.28520
H555        H  0.64275502  0.02579915  0.76744922     0.19110
H556        H  0.71290849  0.11128536  0.88881270     0.19120
C557        C  0.45650752  0.22579847  0.80206951    -0.06710
C558        C  0.43428767  0.19346896  0.77704518    -0.17840
C559        C  0.40158674  0.16563415  0.79706681     0.10480
C560        C  0.39604792  0.16532074  0.84575621    -0.06640
C561        C  0.42200726  0.19616913  0.87007233    -0.17870
C562        C  0.44590591  0.22970856  0.84860166     0.10520
S563        S  0.36850784  0.13372873  0.75754376    -0.32840
S564        S  0.45332276  0.28006410  0.88116177    -0.32840
H565        H  0.46712454  0.30691021  0.84485734     0.28520
H566        H  0.39761545  0.13672446  0.71974636     0.28520
H567        H  0.44173101  0.19121902  0.74122113     0.19110
H568        H  0.41807153  0.19827565  0.90647662     0.19120
C569        C  0.53984845  0.23116247  0.79923280    -0.06710
C570        C  0.55019894  0.24062521  0.84388057    -0.17840
C571        C  0.56704949  0.20677350  0.87076572     0.10480
C572        C  0.59471484  0.17294629  0.85044380    -0.06640
C573        C  0.59613287  0.17272606  0.80259351    -0.17870
C574        C  0.56307969  0.19517846  0.77822312     0.10520
S575        S  0.53943190  0.20166876  0.92521908    -0.32840
S576        S  0.55317914  0.17587705  0.72129528    -0.32840
H577        H  0.52157356  0.20775444  0.70849815     0.28520
H578        H  0.53280072  0.24738666  0.93275388     0.28520
H579        H  0.53654887  0.26995281  0.85962140     0.19110
H580        H  0.61959110  0.15223570  0.78367387     0.19120
C581        C  0.45656358  0.79879261  0.22066212    -0.06710
C582        C  0.42070294  0.77631305  0.20035131    -0.17840
C583        C  0.38720880  0.80008799  0.17744382     0.10480
C584        C  0.39396086  0.84609475  0.16793283    -0.06640
C585        C  0.42394852  0.86780377  0.19678710    -0.17870
C586        C  0.45458981  0.84543392  0.22295639     0.10520
S587        S  0.33462288  0.77172527  0.16969569    -0.32840
S588        S  0.49114532  0.87949218  0.25690536    -0.32840
H589        H  0.50567848  0.84624949  0.28613405     0.28520
H590        H  0.31028652  0.80359288  0.19494119     0.28520
H591        H  0.41865841  0.74049125  0.20220951     0.19110
H592        H  0.42572716  0.90297529  0.19822178     0.19120
C593        C  0.53962857  0.79301717  0.21031198    -0.06710
C594        C  0.57532530  0.81071581  0.23451149    -0.17840
C595        C  0.60902037  0.83517831  0.21283950     0.10480
C596        C  0.60278823  0.84985085  0.16712119    -0.06640
C597        C  0.56752971  0.82964860  0.14315784    -0.17870
C598        C  0.53934650  0.79865300  0.16317673     0.10520
S599        S  0.65947732  0.84045777  0.24526002    -0.32840
S600        S  0.50721133  0.76426232  0.12586289    -0.32840
H601        H  0.49413350  0.73208029  0.15732853     0.28520
H602        H  0.68566636  0.81810877  0.21219345     0.28520
H603        H  0.57747240  0.80511230  0.27046725     0.19110
H604        H  0.56486544  0.83452666  0.10708254     0.19120
C605        C  0.20533584  0.96688256  0.72298310    -0.06710
C606        C  0.22941385  0.93236216  0.70194387    -0.17840
C607        C  0.20771838  0.89840888  0.67930413     0.10480
C608        C  0.16018843  0.90231365  0.67090096    -0.06640
C609        C  0.13611386  0.93458427  0.69647652    -0.17870
C610        C  0.15807631  0.96531187  0.72374399     0.10520
S611        S  0.24347693  0.85026028  0.66967089    -0.32840
S612        S  0.12590738  0.00209214  0.75996374    -0.32840
H613        H  0.08292288  0.98701937  0.74789653     0.28520
H614        H  0.21076515  0.81890553  0.68151163     0.28520
H615        H  0.26582086  0.93254532  0.70134619     0.19110
H616        H  0.09976317  0.93482218  0.69628664     0.19120
C617        C  0.16153536  0.10579960  0.65950417    -0.06710
C618        C  0.17080031  0.06259222  0.64334462    -0.17840
C619        C  0.20426855  0.03667607  0.66190517     0.10480
C620        C  0.22025622  0.04679065  0.70546793    -0.06640
C621        C  0.21837437  0.09179713  0.71737726    -0.17870
C622        C  0.18961641  0.12175829  0.69503793     0.10520
S623        S  0.23339476  0.99740718  0.62516222    -0.32840
S624        S  0.19381239  0.18020077  0.70901869    -0.32840
H625        H  0.22001254  0.17550600  0.74787004     0.28520
H626        H  0.20122728  0.99553211  0.59082882     0.28520
H627        H  0.15678981  0.05049202  0.61262011     0.19110
H628        H  0.24213104  0.10477392  0.74045906     0.19120
C629        C  0.33557236  0.10460548  0.84564961    -0.06710
C630        C  0.29041436  0.11574163  0.83290138    -0.17840
C631        C  0.26065646  0.08352706  0.81569935     0.10480
C632        C  0.27765560  0.04104550  0.80457072    -0.06640
C633        C  0.31727806  0.03000389  0.82755591    -0.17870
C634        C  0.34939991  0.06068562  0.83703829     0.10520
S635        S  0.20101996  0.09513450  0.82082903    -0.32840
S636        S  0.40598435  0.04061376  0.82691256    -0.32840
H637        H  0.42464668  0.08129724  0.81407729     0.28520
H638        H  0.18755729  0.05072857  0.81776533     0.28520
H639        H  0.27685235  0.14861005  0.83927183     0.19110
H640        H  0.32595641  0.99703012  0.83705177     0.19120
C641        C  0.33427254  0.90483451  0.83170527    -0.06710
C642        C  0.28713390  0.89668191  0.82911422    -0.17840
C643        C  0.25854139  0.92824311  0.81085543     0.10480
C644        C  0.27737164  0.96034548  0.78247669    -0.06640
C645        C  0.32238298  0.95454505  0.76786147    -0.17870
C646        C  0.35233781  0.93039507  0.79466698     0.10520
S647        S  0.19992231  0.92699221  0.82748309    -0.32840
S648        S  0.41097375  0.93771890  0.77826548    -0.32840
H649        H  0.43413955  0.91115751  0.80814880     0.28520
H650        H  0.19408829  0.97315457  0.82892648     0.28520
H651        H  0.27123707  0.86880938  0.84534280     0.19110
H652        H  0.33597865  0.97664635  0.74232543     0.19120
C653        C  0.10445704  0.66178372  0.15808761    -0.06710
C654        C  0.10170311  0.70760790  0.14790465    -0.17840
C655        C  0.07771640  0.73797251  0.17485135     0.10480
C656        C  0.04852508  0.72215409  0.20901366    -0.06640
C657        C  0.04902908  0.67675678  0.21861867    -0.17870
C658        C  0.07504668  0.64627205  0.19382071     0.10520
S659        S  0.08622098  0.79590781  0.16242464    -0.32840
S660        S  0.06488827  0.58937339  0.21149226    -0.32840
H661        H  0.10262120  0.56618521  0.19587107     0.28520
H662        H  0.04504775  0.81071002  0.17968118     0.28520
H663        H  0.11750038  0.72083999  0.11794376     0.19110
H664        H  0.02602817  0.66438996  0.24443475     0.19120
C665        C  0.79098820  0.73109336  0.05111803    -0.06710
C666        C  0.76978123  0.70832370  0.08640502    -0.17840
C667        C  0.79379804  0.68590632  0.11977616     0.10480
C668        C  0.84028309  0.67441600  0.11159194    -0.06640
C669        C  0.86177822  0.70248582  0.07935923    -0.17870
C670        C  0.83835985  0.73211203  0.05196756     0.10520
S671        S  0.76288416  0.67753709  0.17202089    -0.32840
S672        S  0.87107023  0.76970330  0.01794055    -0.32840
H673        H  0.83820849  0.80343064  0.02031954     0.28520
H674        H  0.72664265  0.70651629  0.16368180     0.28520
H675        H  0.73417812  0.70602379  0.08772106     0.19110
H676        H  0.89733742  0.70279457  0.07411013     0.19120
C677        C  0.90289770  0.66471102  0.16732901    -0.06710
C678        C  0.93973401  0.68320063  0.14332260    -0.17840
C679        C  0.96362284  0.71878729  0.15951341     0.10480
C680        C  0.96524572  0.72628330  0.20607671    -0.06640
C681        C  0.93426009  0.70358282  0.23343728    -0.17870
C682        C  0.89959603  0.67791852  0.21463525     0.10520
S683        S  0.98971735  0.75434965  0.11829154    -0.32840
S684        S  0.85632202  0.66598662  0.25651986    -0.32840
H685        H  0.82173909  0.65534230  0.22845741     0.28520
H686        H  0.97954970  0.79308809  0.14325273     0.28520
H687        H  0.94865828  0.67325372  0.10956428     0.19110
H688        H  0.93608683  0.70702999  0.26977437     0.19120
C689        C  0.83795084  0.40980750  0.85090023    -0.06710
C690        C  0.83896789  0.41364603  0.80309487    -0.17840
C691        C  0.81510508  0.44667745  0.78054132     0.10480
C692        C  0.77931592  0.46947377  0.80359504    -0.06640
C693        C  0.77635429  0.46337251  0.85059075    -0.17870
C694        C  0.80885574  0.43988038  0.87432797     0.10520
S695        S  0.83683151  0.45905615  0.72425063    -0.32840
S696        S  0.80877976  0.44751268  0.93482474    -0.32840
H697        H  0.84128055  0.48131710  0.93199731     0.28520
H698        H  0.80361980  0.48939155  0.71093374     0.28520
H699        H  0.86045793  0.39313298  0.78200380     0.19110
H700        H  0.75076283  0.47962776  0.87027648     0.19120
C701        C  0.04310913  0.72553216  0.79370096    -0.06710
C702        C  0.04740565  0.72965757  0.84022033    -0.17840
C703        C  0.06294713  0.69353402  0.86421832     0.10480
C704        C  0.09755383  0.66630528  0.84444544    -0.06640
C705        C  0.10748132  0.67583815  0.79818852    -0.17870
C706        C  0.07539704  0.69805562  0.77164573     0.10520
S707        S  0.02597241  0.67762246  0.91021847    -0.32840
S708        S  0.07548806  0.68669559  0.71207598    -0.32840
H709        H  0.02840982  0.68260873  0.71035209     0.28520
H710        H  0.01313365  0.72080767  0.92360335     0.28520
H711        H  0.02975174  0.75523013  0.85816552     0.19110
H712        H  0.13693512  0.66250957  0.78120325     0.19120
C713        C  0.84290810  0.66365779  0.91104892    -0.06710
C714        C  0.83257599  0.70905899  0.90248435    -0.17840
C715        C  0.80914228  0.73593909  0.93320883     0.10480
C716        C  0.78581023  0.71576316  0.96936084    -0.06640
C717        C  0.79148078  0.66988721  0.97598871    -0.17870
C718        C  0.82131813  0.64432088  0.94972893     0.10520
S719        S  0.81051110  0.79510547  0.92231586    -0.32840
S720        S  0.82717122  0.58728046  0.96793090    -0.32840
H721        H  0.82888830  0.56666332  0.92554201     0.28520
H722        H  0.78667021  0.81005409  0.96057320     0.28520
H723        H  0.84341325  0.72523332  0.87179859     0.19110
H724        H  0.77454997  0.65424849  0.00440998     0.19120
C725        C  0.89911800  0.66995044  0.84612936    -0.06710
C726        C  0.92600623  0.70186345  0.86804349    -0.17840
C727        C  0.94736925  0.73504426  0.84294719     0.10480
C728        C  0.95793182  0.72622657  0.79702597    -0.06640
C729        C  0.93271658  0.69347162  0.77559636    -0.17870
C730        C  0.89613324  0.67487645  0.79837167     0.10520
S731        S  0.95197276  0.78929241  0.86861009    -0.32840
S732        S  0.84466983  0.67253725  0.76671911    -0.32840
H733        H  0.81659122  0.68380153  0.80375939     0.28520
H734        H  0.96877147  0.80978702  0.82961332     0.28520
H735        H  0.92469370  0.70495158  0.90448980     0.19110
H736        H  0.93951912  0.68396595  0.74098271     0.19120
C737        C  0.77858871  0.55119509  0.79995357    -0.06710
C738        C  0.82223966  0.55842919  0.78281197    -0.17840
C739        C  0.85481739  0.58080519  0.80768257     0.10480
C740        C  0.84046625  0.60712317  0.84596439    -0.06640
C741        C  0.79360375  0.60652056  0.85627205    -0.17870
C742        C  0.76572014  0.57389032  0.83996296     0.10520
S743        S  0.91155136  0.57526455  0.78365369    -0.32840
S744        S  0.72043329  0.55921811  0.87887134    -0.32840
H745        H  0.69920556  0.52814023  0.85122670     0.28520
H746        H  0.93681796  0.59822845  0.81551473     0.28520
H747        H  0.83286894  0.54286242  0.75176516     0.19110
H748        H  0.77793676  0.62773473  0.88122443     0.19120
C749        C  0.16156190  0.60408707  0.84713039    -0.06710
C750        C  0.19889795  0.58716977  0.87097986    -0.17840
C751        C  0.23039655  0.55759964  0.85142457     0.10480
C752        C  0.22682982  0.54502770  0.80553620    -0.06640
C753        C  0.18982168  0.56149595  0.78189290    -0.17870
C754        C  0.15462999  0.58475842  0.80340081     0.10520
S755        S  0.27233298  0.53539591  0.88836746    -0.32840
S756        S  0.10138682  0.57929065  0.77415309    -0.32840
H757        H  0.07137314  0.59437549  0.80773629     0.28520
H758        H  0.30237399  0.52190052  0.85427994     0.28520
H759        H  0.20301710  0.59626255  0.90611501     0.19110
H760        H  0.18410652  0.54976113  0.74798956     0.19120
C761        C  0.16168013  0.40102821  0.84030642    -0.06710
C762        C  0.20927025  0.39649247  0.84280444    -0.17840
C763        C  0.23930848  0.42817622  0.82601532     0.10480
C764        C  0.22375014  0.46185249  0.79733364    -0.06640
C765        C  0.17789031  0.46022705  0.78584603    -0.17870
C766        C  0.14641660  0.43316433  0.80841550     0.10520
S767        S  0.29564762  0.42620479  0.84671783    -0.32840
S768        S  0.08901261  0.44205106  0.79050532    -0.32840
H769        H  0.06659781  0.40853024  0.81367029     0.28520
H770        H  0.29548488  0.38272506  0.86372319     0.28520
H771        H  0.22410771  0.36855953  0.85950617     0.19110
H772        H  0.16537291  0.48192736  0.76013273     0.19120
C773        C  0.84030933  0.60313168  0.16417962    -0.06710
C774        C  0.85987752  0.58153675  0.20116865    -0.17840
C775        C  0.83489878  0.55440698  0.23034730     0.10480
C776        C  0.78889433  0.54551274  0.22179686    -0.06640
C777        C  0.77088390  0.56331727  0.18213452    -0.17870
C778        C  0.79780809  0.58623324  0.15072835     0.10520
S779        S  0.86504433  0.53254956  0.27746548    -0.32840
S780        S  0.77655899  0.58820194  0.09383702    -0.32840
H781        H  0.81816415  0.59324972  0.07166130     0.28520
H782        H  0.82749773  0.52965335  0.30613879     0.28520
H783        H  0.89494040  0.58729187  0.20876623     0.19110
H784        H  0.73754404  0.55357515  0.17205301     0.19120
C785        C  0.78440378  0.46425233  0.21896740    -0.06710
C786        C  0.78092336  0.46211031  0.17190078    -0.17840
C787        C  0.81158160  0.43833685  0.14539792     0.10480
C788        C  0.83983185  0.40623809  0.16643042    -0.06640
C789        C  0.83841747  0.40479694  0.21451869    -0.17870
C790        C  0.81452245  0.43547628  0.24054905     0.10520
S791        S  0.81029080  0.45218494  0.08567828    -0.32840
S792        S  0.82229918  0.43266967  0.30110353    -0.32840
H793        H  0.78952640  0.46369877  0.31473523     0.28520
H794        H  0.83253782  0.41624329  0.06540615     0.28520
H795        H  0.75678096  0.48284923  0.15498658     0.19110
H796        H  0.85674698  0.38059090  0.23359704     0.19120
C797        C  0.04417520  0.22487193  0.71889889    -0.06710
C798        C  0.05998748  0.18481668  0.73711195    -0.17840
C799        C  0.08352133  0.15405072  0.70890960     0.10480
C800        C  0.10201578  0.16774731  0.66625040    -0.06640
C801        C  0.09692391  0.21379497  0.65717951    -0.17870
C802        C  0.06354121  0.23941839  0.67807670     0.10520
S803        S  0.08310649  0.09698985  0.72615022    -0.32840
S804        S  0.04437120  0.28757438  0.64749926    -0.32840
H805        H  0.01930546  0.30739592  0.68243639     0.28520
H806        H  0.07517279  0.10502454  0.77245692     0.28520
H807        H  0.04465307  0.17347938  0.76836187     0.19110
H808        H  0.11670011  0.23127092  0.63272520     0.19120
C809        C  0.95907771  0.21878285  0.71089572    -0.06710
C810        C  0.96959199  0.17858353  0.68840528    -0.17840
C811        C  0.94319257  0.16284143  0.65493509     0.10480
C812        C  0.89605325  0.16606487  0.66155002    -0.06640
C813        C  0.88189733  0.20412987  0.68693357    -0.17870
C814        C  0.91398054  0.23415007  0.70444859     0.10520
S815        S  0.97489629  0.15694668  0.60193346    -0.32840
S816        S  0.89816249  0.29173816  0.70124637    -0.32840
H817        H  0.94049407  0.30446175  0.68430804     0.28520
H818        H  0.94041707  0.14993429  0.57178448     0.28520
H819        H  0.00184298  0.16343123  0.68742593     0.19110
H820        H  0.84722840  0.21474685  0.68614873     0.19120
C821        C  0.89559792  0.34745750  0.84030001    -0.06710
C822        C  0.93213178  0.36847207  0.81852708    -0.17840
C823        C  0.95984694  0.34597658  0.78790908     0.10480
C824        C  0.95708057  0.29930851  0.78380411    -0.06640
C825        C  0.91962651  0.27812506  0.80305791    -0.17870
C826        C  0.88595483  0.30302850  0.82547756     0.10520
S827        S  0.99707069  0.37903543  0.75367328    -0.32840
S828        S  0.83097178  0.27772641  0.82761047    -0.32840
H829        H  0.80804297  0.31784959  0.81988214     0.28520
H830        H  0.97720829  0.36553513  0.71326200     0.28520
H831        H  0.93728785  0.40370285  0.82243204     0.19110
H832        H  0.91528146  0.24273922  0.79828074     0.19120
C833        C  0.10153218  0.33844783  0.84081833    -0.06710
C834        C  0.06718203  0.31409471  0.86306222    -0.17840
C835        C  0.03893456  0.28567627  0.83952050     0.10480
C836        C  0.03893102  0.28664089  0.79214041    -0.06640
C837        C  0.07475152  0.30761727  0.76979448    -0.17870
C838        C  0.10809979  0.32972978  0.79351122     0.10520
S839        S  0.00562161  0.24671571  0.87130864    -0.32840
S840        S  0.15918139  0.33906082  0.76114951    -0.32840
H841        H  0.18724236  0.32240295  0.79488817     0.28520
H842        H  0.99890937  0.21686883  0.83535674     0.28520
H843        H  0.06443220  0.31439507  0.89943958     0.19110
H844        H  0.07711719  0.30739215  0.73357186     0.19120
C845        C  0.72531832  0.20553242  0.04603062    -0.06710
C846        C  0.72312309  0.21810914  0.09207903    -0.17840
C847        C  0.69706931  0.19349564  0.12385248     0.10480
C848        C  0.66556135  0.16087254  0.10823382    -0.06640
C849        C  0.66733411  0.15314858  0.06132493    -0.17870
C850        C  0.70487826  0.16489029  0.03606447     0.10520
S851        S  0.70203760  0.20819328  0.18245469    -0.32840
S852        S  0.72286147  0.12872130  0.99040707    -0.32840
H853        H  0.76479150  0.14960370  0.98392477     0.28520
H854        H  0.74117633  0.23398589  0.17823722     0.28520
H855        H  0.74066320  0.24667515  0.10409850     0.19110
H856        H  0.64046964  0.13836848  0.04291000     0.19120
C857        C  0.65541778  0.17308135  0.90699703    -0.06710
C858        C  0.63942323  0.18858149  0.94927748    -0.17840
C859        C  0.66093612  0.22263065  0.97216583     0.10480
C860        C  0.70724664  0.22863464  0.96501182    -0.06640
C861        C  0.72436649  0.21591486  0.92213252    -0.17870
C862        C  0.69609834  0.19401798  0.89090123     0.10520
S863        S  0.62999869  0.25633405  0.01192676    -0.32840
S864        S  0.71426175  0.19380527  0.83261176    -0.32840
H865        H  0.67478876  0.21487332  0.81823267     0.28520
H866        H  0.58721505  0.23900942  0.00276402     0.28520
H867        H  0.60976162  0.17507755  0.96511207     0.19110
H868        H  0.75896174  0.22279888  0.91271337     0.19120
C869        C  0.84317788  0.34272483  0.10693520    -0.06710
C870        C  0.79531639  0.34604162  0.10630417    -0.17840
C871        C  0.76891961  0.32274260  0.07585933     0.10480
C872        C  0.78831378  0.28855148  0.04931681    -0.06640
C873        C  0.83408472  0.27913831  0.05548023    -0.17870
C874        C  0.86227723  0.30728666  0.08015540     0.10520
S875        S  0.71054806  0.33906934  0.07365272    -0.32840
S876        S  0.92125119  0.29303805  0.07371297    -0.32840
H877        H  0.94130528  0.32056848  0.10537769     0.28520
H878        H  0.69435456  0.29711627  0.06285759     0.28520
H879        H  0.77672461  0.36704186  0.12940843     0.19110
H880        H  0.84907477  0.25084081  0.03843121     0.19120
C881        C  0.78485379  0.29041804  0.96557475    -0.06710
C882        C  0.82856573  0.27722243  0.95352827    -0.17840
C883        C  0.85714560  0.30452784  0.92847182     0.10480
C884        C  0.83882954  0.34237406  0.90580617    -0.06640
C885        C  0.79117495  0.34730006  0.90909050    -0.17870
C886        C  0.76530086  0.32554234  0.94174535     0.10520
S887        S  0.91481761  0.28450159  0.92686927    -0.32840
S888        S  0.70849628  0.34567162  0.95037268    -0.32840
H889        H  0.69548406  0.31587457  0.98353841     0.28520
H890        H  0.93773905  0.31972707  0.90679786     0.28520
H891        H  0.84194456  0.24668821  0.96695446     0.19110
H892        H  0.77280257  0.36908124  0.88743713     0.19120
C893        C  0.22271739  0.71418495  0.04287478    -0.06710
C894        C  0.21741563  0.66929293  0.03075880    -0.17840
C895        C  0.18858939  0.64103854  0.05490309     0.10480
C896        C  0.17250622  0.65500309  0.09904947    -0.06640
C897        C  0.19445695  0.69260010  0.11700972    -0.17870
C898        C  0.21248539  0.72539216  0.08854798     0.10520
S899        S  0.17575936  0.59135815  0.02184749    -0.32840
S900        S  0.21264550  0.78101382  0.11092056    -0.32840
H901        H  0.20959395  0.77055333  0.15709305     0.28520
H902        H  0.15335052  0.56203931  0.05040265     0.28520
H903        H  0.22965395  0.65829899  0.99782775     0.19110
H904        H  0.18937937  0.70058386  0.15221946     0.19120
C905        C  0.15494118  0.67081614  0.90352639    -0.06710
C906        C  0.13383965  0.69104890  0.94176049    -0.17840
C907        C  0.15483079  0.72195302  0.96940556     0.10480
C908        C  0.20066989  0.73191720  0.96249164    -0.06640
C909        C  0.22057544  0.71704388  0.92155283    -0.17870
C910        C  0.19743572  0.68971735  0.89099562     0.10520
S911        S  0.12165713  0.74463070  0.01575039    -0.32840
S912        S  0.22331011  0.68369129  0.83584338    -0.32840
H913        H  0.19237306  0.71312524  0.81644001     0.28520
H914        H  0.14571799  0.78432251  0.01803341     0.28520
H915        H  0.10010007  0.68423430  0.95157527     0.19110
H916        H  0.25446866  0.72563573  0.91266246     0.19120
C917        C  0.34320622  0.84785955  0.09529043    -0.06710
C918        C  0.30550104  0.86822805  0.07570911    -0.17840
C919        C  0.27389432  0.84413903  0.05207339     0.10480
C920        C  0.28343787  0.79959839  0.03910236    -0.06640
C921        C  0.32534804  0.78180073  0.05074347    -0.17870
C922        C  0.35650959  0.80657247  0.07548069     0.10520
S923        S  0.22080943  0.87240354  0.04399808    -0.32840
S924        S  0.41293950  0.78498854  0.07498065    -0.32840
H925        H  0.43485083  0.82520644  0.08317933     0.28520
H926        H  0.19711859  0.83513948  0.02969306     0.28520
H927        H  0.29819155  0.90295876  0.08218911     0.19110
H928        H  0.33533443  0.74958054  0.03779819     0.19120
C929        C  0.33166338  0.85302444  0.90122937    -0.06710
C930        C  0.33978970  0.80667248  0.90629796    -0.17840
C931        C  0.31573230  0.78054841  0.93652042     0.10480
C932        C  0.27629634  0.79774172  0.95715894    -0.06640
C933        C  0.26310536  0.84087516  0.94645581    -0.17870
C934        C  0.29246447  0.87032563  0.92477736     0.10520
S935        S  0.33920271  0.72596165  0.94727250    -0.32840
S936        S  0.27326965  0.92785053  0.92747997    -0.32840
H937        H  0.30706756  0.94883723  0.90235822     0.28520
H938        H  0.30407943  0.70844870  0.97365194     0.28520
H939        H  0.36696106  0.78953225  0.88919779     0.19110
H940        H  0.23107272  0.85315357  0.95871743     0.19120
C941        C  0.20892718  0.46375925  0.23115496    -0.06710
C942        C  0.16174738  0.46576186  0.23347576    -0.17840
C943        C  0.13455998  0.43639813  0.20948965     0.10480
C944        C  0.15520292  0.40461085  0.17913792    -0.06640
C945        C  0.20196947  0.39741541  0.18557476    -0.17870
C946        C  0.22904447  0.42684063  0.20913660     0.10520
S947        S  0.07523631  0.44031010  0.22542960    -0.32840
S948        S  0.28841360  0.41462633  0.20647063    -0.32840
H949        H  0.30206522  0.45862389  0.20266490     0.28520
H950        H  0.05536403  0.41362180  0.19273074     0.28520
H951        H  0.14572710  0.49207168  0.25317434     0.19110
H952        H  0.21851030  0.36787852  0.17275574     0.19120
C953        C  0.21871437  0.54425494  0.21621384    -0.06710
C954        C  0.19737029  0.58119941  0.23608069    -0.17840
C955        C  0.17671832  0.61364618  0.20953647     0.10480
C956        C  0.16789693  0.60376605  0.16287246    -0.06640
C957        C  0.19246492  0.56847796  0.14357572    -0.17870
C958        C  0.21963321  0.54105213  0.16874125     0.10520
S959        S  0.16707941  0.66719475  0.23638919    -0.32840
S960        S  0.25613773  0.50405031  0.13750703    -0.32840
H961        H  0.29445404  0.52000960  0.15969563     0.28520
H962        H  0.19207130  0.65955947  0.27560351     0.28520
H963        H  0.19680571  0.58496489  0.27239587     0.19110
H964        H  0.19258441  0.56292812  0.10802631     0.19120
C965        C  0.15666528  0.16287958  0.59624711    -0.06710
C966        C  0.13110842  0.18969141  0.56721513    -0.17840
C967        C  0.15001770  0.22596259  0.54516201     0.10480
C968        C  0.19733863  0.22882290  0.53973997    -0.06640
C969        C  0.22375602  0.19880291  0.56332448    -0.17870
C970        C  0.20496496  0.16563762  0.59056634     0.10520
S971        S  0.11146869  0.27088014  0.53359848    -0.32840
S972        S  0.24557504  0.12402666  0.60661489    -0.32840
H973        H  0.28175095  0.15334393  0.61318741     0.28520
H974        H  0.14385165  0.30098342  0.51801816     0.28520
H975        H  0.09464316  0.18764205  0.56863872     0.19110
H976        H  0.25978275  0.19900925  0.55761128     0.19120
C977        C  0.15396827  0.16361606  0.40345288    -0.06710
C978        C  0.20171131  0.16223194  0.40676699    -0.17840
C979        C  0.22547773  0.19034186  0.43590163     0.10480
C980        C  0.20349303  0.22768074  0.45554181    -0.06640
C981        C  0.15885618  0.23499787  0.44293440    -0.17870
C982        C  0.13267305  0.20112638  0.42448088     0.10520
S983        S  0.28363718  0.17582698  0.44486657    -0.32840
S984        S  0.07253073  0.20971783  0.42916005    -0.32840
H985        H  0.06258330  0.16567687  0.44045139     0.28520
H986        H  0.28769152  0.19453879  0.48769907     0.28520
H987        H  0.22183687  0.13893360  0.38770984     0.19110
H988        H  0.14253490  0.26571508  0.45184953     0.19120
C989        C  0.59828215  0.15671512  0.16735478    -0.06710
C990        C  0.57125232  0.13355236  0.19924605    -0.17840
C991        C  0.54082074  0.15530739  0.22893943     0.10480
C992        C  0.53531722  0.20197132  0.22702800    -0.06640
C993        C  0.55832592  0.22409376  0.19241588    -0.17870
C994        C  0.58752271  0.20254990  0.16211828     0.10520
S995        S  0.50997288  0.12106066  0.26801197    -0.32840
S996        S  0.59926938  0.23465392  0.11294753    -0.32840
H997        H  0.58564986  0.20030555  0.08382052     0.28520
H998        H  0.50543118  0.15415373  0.30104092     0.28520
H999        H  0.57602562  0.09812509  0.20325119     0.19110
H1000       H  0.54832517  0.25768654  0.18451261     0.19120
C1001       C  0.39005296  0.17341839  0.16572797    -0.06710
C1002       C  0.38240269  0.17521151  0.21267722    -0.17840
C1003       C  0.41665566  0.18936273  0.24133822     0.10480
C1004       C  0.45354679  0.21283379  0.22235659    -0.06640
C1005       C  0.45279415  0.22299663  0.17643944    -0.17870
C1006       C  0.41831978  0.20813240  0.14938716     0.10520
S1007       S  0.40911904  0.17849267  0.30090921    -0.32840
S1008       S  0.39641735  0.25488003  0.11871108    -0.32840
H1009       H  0.35237491  0.25081374  0.13647943     0.28520
H1010       H  0.44277149  0.20669883  0.31622583     0.28520
H1011       H  0.35170770  0.16293756  0.22774293     0.19110
H1012       H  0.47583339  0.24752896  0.16298361     0.19120
C1013       C  0.09637251  0.34406355  0.17150676    -0.06710
C1014       C  0.06185512  0.32191940  0.14770584    -0.17840
C1015       C  0.03537197  0.28939236  0.16844541     0.10480
C1016       C  0.03543323  0.28521971  0.21552515    -0.06640
C1017       C  0.06565170  0.31025816  0.24016001    -0.17870
C1018       C  0.09987435  0.33369781  0.21892071     0.10520
S1019       S  0.00477916  0.25142561  0.13341299    -0.32840
S1020       S  0.14695894  0.34271312  0.25584042    -0.32840
H1021       H  0.17847644  0.32202819  0.22685117     0.28520
H1022       H  0.00297563  0.21684016  0.16503510     0.28520
H1023       H  0.05965381  0.32462548  0.11155918     0.19110
H1024       H  0.06473128  0.30827935  0.27673641     0.19120
C1025       C  0.95568252  0.21486697  0.28946799    -0.06710
C1026       C  0.95758749  0.22222231  0.33604969    -0.17840
C1027       C  0.93355142  0.19548995  0.36657640     0.10480
C1028       C  0.90210495  0.16358451  0.35026579    -0.06640
C1029       C  0.89325346  0.16607302  0.30315330    -0.17870
C1030       C  0.92360796  0.18501544  0.27279744     0.10520
S1031       S  0.94387084  0.20513061  0.42536055    -0.32840
S1032       S  0.92454741  0.16547398  0.21434780    -0.32840
H1033       H  0.88681326  0.13757015  0.21764630     0.28520
H1034       H  0.96687338  0.24569596  0.42144677     0.28520
H1035       H  0.98273063  0.24504585  0.34845369     0.19110
H1036       H  0.86384392  0.15136054  0.28858941     0.19120
C1037       C  0.95422200  0.29587055  0.23171238    -0.06710
C1038       C  0.91493184  0.27801909  0.21393832    -0.17840
C1039       C  0.88534187  0.30283870  0.18821164     0.10480
C1040       C  0.89854874  0.34567224  0.17269365    -0.06640
C1041       C  0.93414850  0.36577844  0.19659885    -0.17870
C1042       C  0.95836674  0.34244994  0.22891310     0.10520
S1043       S  0.83019955  0.27856708  0.18264281    -0.32840
S1044       S  0.98878294  0.37416707  0.26997123    -0.32840
H1045       H  0.99087625  0.33953576  0.30159141     0.28520
H1046       H  0.80723778  0.31791927  0.19446826     0.28520
H1047       H  0.90492869  0.24578008  0.22133543     0.19110
H1048       H  0.94048511  0.40083207  0.19365858     0.19120
C1049       C  0.09603817  0.16147845  0.34195533    -0.06710
C1050       C  0.05059462  0.15042824  0.33718786    -0.17840
C1051       C  0.02917263  0.15889792  0.29727947     0.10480
C1052       C  0.03782208  0.19913109  0.27492344    -0.06640
C1053       C  0.08163120  0.21598498  0.28172671    -0.17870
C1054       C  0.11123069  0.19735885  0.31361788     0.10520
S1055       S  0.99894716  0.11387462  0.27173984    -0.32840
S1056       S  0.16660888  0.22211099  0.31541015    -0.32840
H1057       H  0.19164629  0.18288381  0.31810429     0.28520
H1058       H  0.98838676  0.09179280  0.31219147     0.28520
H1059       H  0.03123284  0.13345053  0.36238170     0.19110
H1060       H  0.09565357  0.24038633  0.25994164     0.19120
C1061       C  0.27346024  0.96234566  0.20503328    -0.06710
C1062       C  0.31946922  0.96544219  0.21308444    -0.17840
C1063       C  0.34989451  0.94483780  0.18406872     0.10480
C1064       C  0.33646160  0.90569485  0.16017010    -0.06640
C1065       C  0.29060536  0.89290286  0.16745939    -0.17870
C1066       C  0.25818422  0.92372749  0.18298225     0.10520
S1067       S  0.39872197  0.97883719  0.17332703    -0.32840
S1068       S  0.19974005  0.91064463  0.17365871    -0.32840
H1069       H  0.18111792  0.95170207  0.18613777     0.28520
H1070       H  0.40850591  0.98518770  0.21926116     0.28520
H1071       H  0.33184709  0.99088875  0.23533038     0.19110
H1072       H  0.27850599  0.86109625  0.15593635     0.19120
C1073       C  0.20932145  0.04839146  0.27680002    -0.06710
C1074       C  0.21711203  0.04663262  0.32331712    -0.17840
C1075       C  0.19053665  0.07056238  0.35449825     0.10480
C1076       C  0.15912391  0.10311527  0.33899864    -0.06640
C1077       C  0.15616951  0.10749599  0.29113380    -0.17870
C1078       C  0.18127617  0.08196849  0.26049317     0.10520
S1079       S  0.19747508  0.05638491  0.41337516    -0.32840
S1080       S  0.17063958  0.09070651  0.20139430    -0.32840
H1081       H  0.16687657  0.04575667  0.19041199     0.28520
H1082       H  0.21587649  0.01370526  0.40646731     0.28520
H1083       H  0.24002594  0.02145475  0.33546035     0.19110
H1084       H  0.13180630  0.12840120  0.27539107     0.19120
C1085       C  0.33550511  0.10284246  0.15815328    -0.06710
C1086       C  0.30302006  0.08120230  0.13114187    -0.17840
C1087       C  0.27168613  0.05101283  0.14887512     0.10480
C1088       C  0.26881689  0.04425761  0.19608117    -0.06640
C1089       C  0.29988965  0.06642229  0.22313985    -0.17870
C1090       C  0.33739945  0.08725847  0.20370230     0.10520
S1091       S  0.23862591  0.02072881  0.10851405    -0.32840
S1092       S  0.38798128  0.07965832  0.23627340    -0.32840
H1093       H  0.41840597  0.09523879  0.20431041     0.28520
H1094       H  0.20536366  0.00593542  0.13853357     0.28520
H1095       H  0.30258018  0.08701658  0.09511759     0.19110
H1096       H  0.30103891  0.05814873  0.25868939     0.19120
C1097       C  0.19485089  0.96696784  0.27421297    -0.06710
C1098       C  0.21757232  0.92757716  0.28480190    -0.17840
C1099       C  0.19615119  0.89501349  0.31065655     0.10480
C1100       C  0.15943383  0.90708731  0.34038782    -0.06640
C1101       C  0.14010458  0.94926101  0.33246923    -0.17870
C1102       C  0.15194578  0.97332467  0.29452082     0.10520
S1103       S  0.21700141  0.83961724  0.30181246    -0.32840
S1104       S  0.10872695  0.00809306  0.27133715    -0.32840
H1105       H  0.12043422  0.99687628  0.22656237     0.28520
H1106       H  0.18557532  0.83121064  0.26774311     0.28520
H1107       H  0.25105668  0.92044093  0.27239789     0.19110
H1108       H  0.11033617  0.96080044  0.35004528     0.19120
C1109       C  0.15964394  0.34226725  0.90322769    -0.06710
C1110       C  0.18382678  0.36807398  0.93440065    -0.17840
C1111       C  0.21678154  0.34979935  0.96119815     0.10480
C1112       C  0.21773429  0.30348489  0.96784302    -0.06640
C1113       C  0.19178145  0.27684463  0.93954592    -0.17870
C1114       C  0.16746881  0.29504285  0.90388366     0.10520
S1115       S  0.26108744  0.38613694  0.97929585    -0.32840
S1116       S  0.15271452  0.25602664  0.85977017    -0.32840
H1117       H  0.18206768  0.22141110  0.87189337     0.28520
H1118       H  0.25049679  0.42277626  0.95211805     0.28520
H1119       H  0.18081133  0.40391148  0.93344800     0.19110
H1120       H  0.19159324  0.24128342  0.94438768     0.19120
C1121       C  0.34103655  0.16593872  0.09959596    -0.06710
C1122       C  0.29594458  0.17776948  0.11027022    -0.17840
C1123       C  0.26885496  0.19991542  0.07948304     0.10480
C1124       C  0.28924349  0.22339725  0.04336417    -0.06640
C1125       C  0.33554174  0.21620552  0.03551413    -0.17870
C1126       C  0.36023916  0.18462054  0.05925384     0.10520
S1127       S  0.21010549  0.18666224  0.08397762    -0.32840
S1128       S  0.41804510  0.17609308  0.03973138    -0.32840
H1129       H  0.41118994  0.18802017  0.99446495     0.28520
H1130       H  0.20107468  0.19010659  0.03789067     0.28520
H1131       H  0.27994361  0.16565612  0.14085668     0.19110
H1132       H  0.35211360  0.23343294  0.00796731     0.19120
C1133       C  0.21985989  0.30008435  0.05131766    -0.06710
C1134       C  0.17789715  0.28329703  0.06416684    -0.17840
C1135       C  0.15564671  0.30010223  0.10222029     0.10480
C1136       C  0.16164592  0.34607620  0.11373787    -0.06640
C1137       C  0.19952045  0.36665787  0.09270917    -0.17870
C1138       C  0.23278116  0.34056761  0.07095530     0.10520
S1139       S  0.13598367  0.25661079  0.13909487    -0.32840
S1140       S  0.29103872  0.35638185  0.07632622    -0.32840
H1141       H  0.30911980  0.31653805  0.05886961     0.28520
H1142       H  0.16283918  0.27052325  0.17488724     0.28520
H1143       H  0.16444053  0.25442341  0.04745406     0.19150
H1144       H  0.20682509  0.40125528  0.09927109     0.19120
C1145       C  0.27639992  0.22238276  0.96111149    -0.06710
C1146       C  0.26792050  0.17678548  0.95928355    -0.17840
C1147       C  0.29337538  0.14793852  0.93206663     0.10480
C1148       C  0.32846861  0.16558765  0.90320924    -0.06640
C1149       C  0.32740937  0.21242287  0.89742015    -0.17870
C1150       C  0.30531583  0.24064387  0.92809035     0.10520
S1151       S  0.27320521  0.09093686  0.93536606    -0.32840
S1152       S  0.32012002  0.29848693  0.92570480    -0.32840
H1153       H  0.32401867  0.30408398  0.97258306     0.28520
H1154       H  0.30909375  0.06691917  0.91686819     0.28520
H1155       H  0.24375674  0.16261033  0.98267018     0.19110
H1156       H  0.34564052  0.22843532  0.87036398     0.19120
C1157       C  0.59614548  0.66447299  0.66699488    -0.06710
C1158       C  0.60375093  0.71095565  0.67196248    -0.17840
C1159       C  0.57201032  0.73949068  0.69130802     0.10480
C1160       C  0.53602870  0.72164699  0.71649362    -0.06640
C1161       C  0.53350735  0.67540052  0.72072633    -0.17870
C1162       C  0.56092261  0.64659795  0.69536317     0.10520
S1163       S  0.57750191  0.79717730  0.67696416    -0.32840
S1164       S  0.54643032  0.58884165  0.70418849    -0.32840
H1165       H  0.58843362  0.56854609  0.69900249     0.28520
H1166       H  0.53266014  0.80106572  0.66334038     0.28520
H1167       H  0.63352073  0.72692586  0.65868215     0.19110
H1168       H  0.50691813  0.66133874  0.74162085     0.19120
C1169       C  0.70476926  0.54873073  0.72871695    -0.06710
C1170       C  0.70870402  0.54260181  0.68140038    -0.17840
C1171       C  0.68476881  0.56870085  0.65044679     0.10480
C1172       C  0.65786903  0.60502182  0.66635825    -0.06640
C1173       C  0.66000996  0.61443152  0.71314206    -0.17870
C1174       C  0.67890389  0.58549098  0.74397768     0.10520
S1175       S  0.69100867  0.55259120  0.59189493    -0.32840
S1176       S  0.66348319  0.59592415  0.80160779    -0.32840
H1177       H  0.62235509  0.61787143  0.79384090     0.28520
H1178       H  0.68141529  0.59336627  0.57224996     0.28520
H1179       H  0.72849645  0.51499414  0.66828264     0.19110
H1180       H  0.64547819  0.64446392  0.72710488     0.19120
C1181       C  0.66055751  0.66830919  0.60849022    -0.06710
C1182       C  0.63892228  0.69823356  0.57923980    -0.17840
C1183       C  0.66248343  0.72697741  0.55126510     0.10480
C1184       C  0.70977392  0.72516598  0.54960072    -0.06640
C1185       C  0.73208821  0.70175160  0.58299920    -0.17870
C1186       C  0.70831762  0.67519182  0.61378594     0.10520
S1187       S  0.63014399  0.76449474  0.51734710    -0.32840
S1188       S  0.74187365  0.65812307  0.66071518    -0.32840
H1189       H  0.71573710  0.68347848  0.69150483     0.28520
H1190       H  0.66458398  0.79599986  0.51363003     0.28520
H1191       H  0.60262399  0.70144874  0.58032413     0.19110
H1192       H  0.76850101  0.70267580  0.58406206     0.19120
C1193       C  0.39942519  0.33868173  0.65902323    -0.06710
C1194       C  0.38043117  0.31853646  0.69814806    -0.17840
C1195       C  0.40848697  0.29998225  0.73140926     0.10480
C1196       C  0.45307582  0.28655569  0.71888585    -0.06640
C1197       C  0.46467901  0.29094343  0.67320297    -0.17870
C1198       C  0.44459458  0.32441097  0.64811199     0.10520
S1199       S  0.38777737  0.30103051  0.78881648    -0.32840
S1200       S  0.48375621  0.34881103  0.60884539    -0.32840
H1201       H  0.48150975  0.38968412  0.63139654     0.28520
H1202       H  0.35008548  0.32854454  0.78203075     0.28520
H1203       H  0.34531290  0.32472303  0.70643918     0.19110
H1204       H  0.49711651  0.27819145  0.66154927     0.19120
C1205       C  0.34222973  0.40454784  0.66542128    -0.06710
C1206       C  0.36153464  0.41364116  0.70784313    -0.17840
C1207       C  0.34401100  0.44431698  0.73893499     0.10480
C1208       C  0.30297631  0.46658703  0.73007000    -0.06640
C1209       C  0.28465544  0.46032296  0.68701187    -0.17870
C1210       C  0.30597693  0.43382654  0.65354635     0.10520
S1211       S  0.38053543  0.45537198  0.78567538    -0.32840
S1212       S  0.28646217  0.44414826  0.59674155    -0.32840
H1213       H  0.31959679  0.42189567  0.57134683     0.28520
H1214       H  0.35134602  0.48364736  0.80922720     0.28520
H1215       H  0.39385504  0.39978493  0.71579239     0.19110
H1216       H  0.25596001  0.48040210  0.67758631     0.19120
C1217       C  0.33647933  0.34082813  0.60303914    -0.06710
C1218       C  0.28872904  0.34197906  0.60883460    -0.17840
C1219       C  0.25960290  0.32200317  0.57716757     0.10480
C1220       C  0.27706952  0.29044155  0.54605465    -0.06640
C1221       C  0.32152735  0.27756457  0.55251865    -0.17870
C1222       C  0.35226899  0.30610492  0.57311675     0.10520
S1223       S  0.20095352  0.33686323  0.57808693    -0.32840
S1224       S  0.40999465  0.29606324  0.55677801    -0.32840
H1225       H  0.40353123  0.26506935  0.52184213     0.28520
H1226       H  0.20351022  0.37089275  0.61067371     0.28520
H1227       H  0.27335664  0.36015863  0.63636791     0.19110
H1228       H  0.33337243  0.24706896  0.53730442     0.19120
C1229       C  0.65809892  0.40239691  0.34406006    -0.06710
C1230       C  0.65279244  0.44881341  0.34780165    -0.17840
C1231       C  0.66039692  0.47458392  0.31019025     0.10480
C1232       C  0.69946141  0.46608537  0.28400632    -0.06640
C1233       C  0.71444418  0.42130227  0.28491800    -0.17870
C1234       C  0.69444224  0.38933639  0.31402034     0.10520
S1235       S  0.60934673  0.48926093  0.28127922    -0.32840
S1236       S  0.71661362  0.33350713  0.30787924    -0.32840
H1237       H  0.68281722  0.31003910  0.33060505     0.28520
H1238       H  0.57818407  0.47710705  0.31502887     0.28520
H1239       H  0.63672980  0.46542125  0.37595987     0.19110
H1240       H  0.73921636  0.40908150  0.26154732     0.19120
C1241       C  0.65794079  0.34329434  0.40736606    -0.06710
C1242       C  0.70163819  0.36092152  0.41608474    -0.17840
C1243       C  0.73288463  0.34012073  0.44365225     0.10480
C1244       C  0.72038933  0.30195105  0.46759467    -0.06640
C1245       C  0.67806193  0.28444588  0.46166340    -0.17870
C1246       C  0.64634307  0.30433869  0.43397901     0.10520
S1247       S  0.78886694  0.36311216  0.44629148    -0.32840
S1248       S  0.59277047  0.27773879  0.44227418    -0.32840
H1249       H  0.59465034  0.27509913  0.48971899     0.28520
H1250       H  0.81007579  0.32231888  0.45475279     0.28520
H1251       H  0.71286263  0.39195132  0.40198246     0.19110
H1252       H  0.66888001  0.25562799  0.48163389     0.19120
C1253       C  0.59779524  0.33890174  0.34104020    -0.06710
C1254       C  0.56055241  0.31749469  0.36120008    -0.17840
C1255       C  0.53913638  0.28131875  0.34155698     0.10480
C1256       C  0.54174456  0.27512454  0.29495836    -0.06640
C1257       C  0.57616314  0.29751479  0.27189342    -0.17870
C1258       C  0.60262343  0.33015603  0.29297672     0.10520
S1259       S  0.50439752  0.24660556  0.37629084    -0.32840
S1260       S  0.62441411  0.36777255  0.25110366    -0.32840
H1261       H  0.60062618  0.40274160  0.27120709     0.28520
H1262       H  0.51600787  0.20809360  0.35198661     0.28520
H1263       H  0.54736326  0.32848189  0.39343863     0.19110
H1264       H  0.57674270  0.29673819  0.23570443     0.19120
C1265       C  0.40069114  0.66573024  0.33379412    -0.06710
C1266       C  0.39391713  0.71246175  0.33018552    -0.17840
C1267       C  0.42461652  0.73981487  0.30852765     0.10480
C1268       C  0.45916721  0.72042929  0.28219113    -0.06640
C1269       C  0.46111516  0.67423970  0.27793202    -0.17870
C1270       C  0.43390177  0.64661225  0.30386993     0.10520
S1271       S  0.41980508  0.79825143  0.32083930    -0.32840
S1272       S  0.44572804  0.58861448  0.29441005    -0.32840
H1273       H  0.40145769  0.57514825  0.28744568     0.28520
H1274       H  0.46506742  0.80278331  0.33251702     0.28520
H1275       H  0.36583502  0.72926346  0.34644533     0.19110
H1276       H  0.48708315  0.65927461  0.25663324     0.19120
C1277       C  0.34568341  0.67306132  0.40064857    -0.06710
C1278       C  0.29796822  0.67794836  0.39856591    -0.17840
C1279       C  0.27309150  0.70327565  0.42963435     0.10480
C1280       C  0.29576650  0.73041439  0.46041733    -0.06640
C1281       C  0.34286338  0.73111447  0.45906835    -0.17870
C1282       C  0.36830759  0.70355117  0.43039731     0.10520
S1283       S  0.21296653  0.69470004  0.43083844    -0.32840
S1284       S  0.42851561  0.71469941  0.43371208    -0.32840
H1285       H  0.44687294  0.68802868  0.39939621     0.28520
H1286       H  0.20591057  0.70189638  0.47726701     0.28520
H1287       H  0.27834506  0.66108880  0.37347904     0.19110
H1288       H  0.36028612  0.75216689  0.48293803     0.19120
C1289       C  0.33588120  0.61086528  0.34184862    -0.06710
C1290       C  0.30857028  0.58289229  0.36854754    -0.17840
C1291       C  0.27331733  0.55926446  0.34994157     0.10480
C1292       C  0.27218943  0.55238211  0.30287167    -0.06640
C1293       C  0.29850732  0.58004355  0.27555534    -0.17870
C1294       C  0.32523163  0.61307879  0.29460118     0.10520
S1295       S  0.22739821  0.54525677  0.38722891    -0.32840
S1296       S  0.33856185  0.65767159  0.25648189    -0.32840
H1297       H  0.31816841  0.68959299  0.28512926     0.28520
H1298       H  0.19551670  0.54279941  0.35263198     0.28520
H1299       H  0.31127417  0.58381728  0.40500413     0.19110
H1300       H  0.29747307  0.57690881  0.23917233     0.19120
C1301       C  0.65917660  0.66796351  0.40311120    -0.06710
C1302       C  0.67765523  0.64493124  0.43992079    -0.17840
C1303       C  0.70831893  0.66501311  0.46898554     0.10480
C1304       C  0.71615084  0.71128574  0.46685256    -0.06640
C1305       C  0.69792955  0.73433988  0.43090639    -0.17870
C1306       C  0.67314059  0.71342757  0.39729849     0.10520
S1307       S  0.74013804  0.62876907  0.50460973    -0.32840
S1308       S  0.66697667  0.74571668  0.34623901    -0.32840
H1309       H  0.67175900  0.78831138  0.36527972     0.28520
H1310       H  0.77806790  0.65641861  0.50594129     0.28520
H1311       H  0.67183480  0.60963310  0.44337694     0.19110
H1312       H  0.70295860  0.76924150  0.42872136     0.19120
C1313       C  0.59981682  0.67417897  0.34233041    -0.06710
C1314       C  0.60657044  0.68078531  0.29509003    -0.17840
C1315       C  0.57594296  0.70369973  0.26870457     0.10480
C1316       C  0.54102371  0.72799008  0.28999906    -0.06640
C1317       C  0.53919302  0.72904047  0.33742110    -0.17870
C1318       C  0.56732381  0.70273178  0.36379673     0.10520
S1319       S  0.58203265  0.69681286  0.20849481    -0.32840
S1320       S  0.56307459  0.71057386  0.42438533    -0.32840
H1321       H  0.53486620  0.74820184  0.42494862     0.28520
H1322       H  0.53626307  0.68805961  0.20206241     0.28520
H1323       H  0.63614200  0.66845313  0.27749058     0.19110
H1324       H  0.51316770  0.74854417  0.35405678     0.19120
C1325       C  0.66194970  0.61266186  0.33672677    -0.06710
C1326       C  0.64220289  0.59144577  0.29904119    -0.17840
C1327       C  0.66820824  0.56805656  0.26705927     0.10480
C1328       C  0.70946415  0.55038595  0.28069661    -0.06640
C1329       C  0.73035340  0.57032138  0.31735430    -0.17870
C1330       C  0.70982796  0.60555308  0.34080880     0.10520
S1331       S  0.64640334  0.56069924  0.21082517    -0.32840
S1332       S  0.75018773  0.64226870  0.36591956    -0.32840
H1333       H  0.73808448  0.67754856  0.33769915     0.28520
H1334       H  0.67128182  0.52239905  0.19944417     0.28520
H1335       H  0.60683254  0.59616930  0.29207722     0.19110
H1336       H  0.76371384  0.55990773  0.32655167     0.19120
C1337       C  0.33869002  0.41241306  0.34683097    -0.06710
C1338       C  0.29911014  0.42928454  0.36826259    -0.17840
C1339       C  0.26595090  0.45007606  0.34301731     0.10480
C1340       C  0.27908221  0.47143657  0.30306933    -0.06640
C1341       C  0.32390835  0.46740990  0.28870246    -0.17870
C1342       C  0.35288402  0.43640154  0.30742004     0.10520
S1343       S  0.20809087  0.44364588  0.36131969    -0.32840
S1344       S  0.40771905  0.43454865  0.28086758    -0.32840
H1345       H  0.41139615  0.48059213  0.27383558     0.28520
H1346       H  0.18848240  0.46421040  0.32415994     0.28520
H1347       H  0.29092243  0.42101104  0.40290438     0.19110
H1348       H  0.33619530  0.48850479  0.26170101     0.19120
C1349       C  0.28032562  0.29276166  0.45970761    -0.06710
C1350       C  0.32565082  0.28078525  0.45206525    -0.17840
C1351       C  0.35448789  0.30526896  0.42389227     0.10480
C1352       C  0.33693430  0.34081664  0.39777639    -0.06640
C1353       C  0.28899443  0.33997294  0.39447508    -0.17870
C1354       C  0.26140291  0.32182128  0.42835439     0.10520
S1355       S  0.41060407  0.28268062  0.41970518    -0.32840
S1356       S  0.20332450  0.33907886  0.43042858    -0.32840
H1357       H  0.20136820  0.34332536  0.47761900     0.28520
H1358       H  0.43540390  0.32040847  0.40970569     0.28520
H1359       H  0.33958123  0.25211609  0.46813640     0.19110
H1360       H  0.27179355  0.35522012  0.36682230     0.19120
C1361       C  0.39806645  0.35012171  0.33725257    -0.06710
C1362       C  0.44450688  0.35992799  0.33338504    -0.17840
C1363       C  0.47117573  0.34049534  0.29969897     0.10480
C1364       C  0.45993031  0.29851624  0.28204210    -0.06640
C1365       C  0.41325236  0.28985923  0.28245050    -0.17870
C1366       C  0.38221304  0.31656494  0.30708892     0.10520
S1367       S  0.50898504  0.37717300  0.27041883    -0.32840
S1368       S  0.32362250  0.30468948  0.29808614    -0.32840
H1369       H  0.31153166  0.34917178  0.29123744     0.28520
H1370       H  0.51023804  0.35200597  0.23020249     0.28520
H1371       H  0.45907220  0.38771127  0.35075791     0.19110
H1372       H  0.39915113  0.26456743  0.26206014     0.19120
C1373       C  0.65439798  0.41455672  0.67469927    -0.06710
C1374       C  0.62901654  0.44014960  0.70686584    -0.17840
C1375       C  0.64851554  0.46641301  0.74016447     0.10480
C1376       C  0.69546874  0.46792808  0.74386797    -0.06640
C1377       C  0.72021408  0.43847768  0.71738131    -0.17870
C1378       C  0.70241503  0.41566800  0.68089522     0.10520
S1379       S  0.61134733  0.49699686  0.77752417    -0.32840
S1380       S  0.74612607  0.38935783  0.64725432    -0.32840
H1381       H  0.77598943  0.42555467  0.64772888     0.28520
H1382       H  0.64105874  0.49582786  0.81386102     0.28520
H1383       H  0.59302346  0.44103827  0.70687274     0.19110
H1384       H  0.75505777  0.43565485  0.72234953     0.19120
C1385       C  0.59648712  0.35423555  0.67371196    -0.06710
C1386       C  0.55363112  0.37187424  0.68704382    -0.17840
C1387       C  0.52625541  0.35332115  0.72087418     0.10480
C1388       C  0.53410043  0.30958085  0.73472330    -0.06640
C1389       C  0.57743551  0.29271210  0.72498576    -0.17870
C1390       C  0.61007070  0.31734285  0.70111205     0.10520
S1391       S  0.48100633  0.38564865  0.74613958    -0.32840
S1392       S  0.66666142  0.30062649  0.71446569    -0.32840
H1393       H  0.68830133  0.33542903  0.69395733     0.28520
H1394       H  0.48852998  0.42506540  0.72199135     0.28520
H1395       H  0.54183859  0.40271296  0.67377904     0.19110
H1396       H  0.58811484  0.26131667  0.73718211     0.19120
C1397       C  0.65905494  0.35866424  0.60583793    -0.06710
C1398       C  0.66621335  0.31221607  0.60628809    -0.17840
C1399       C  0.70684250  0.29427972  0.58860747     0.10480
C1400       C  0.72656317  0.31394417  0.55001817    -0.06640
C1401       C  0.71648217  0.35946053  0.54470491    -0.17870
C1402       C  0.68416402  0.38204634  0.57167148     0.10520
S1403       S  0.74432212  0.28255292  0.63431370    -0.32840
S1404       S  0.68019526  0.44152705  0.56418360    -0.32840
H1405       H  0.69939449  0.44322086  0.52048478     0.28520
H1406       H  0.78351767  0.29990314  0.61373004     0.28520
H1407       H  0.64626922  0.29120342  0.62775236     0.19110
H1408       H  0.73466845  0.37821095  0.51977204     0.19120
C1409       C  0.39607738  0.67197327  0.66039328    -0.06710
C1410       C  0.39118305  0.67792089  0.70810486    -0.17840
C1411       C  0.42140117  0.70303893  0.73343991     0.10480
C1412       C  0.45399933  0.72862772  0.71072760    -0.06640
C1413       C  0.45448112  0.72890126  0.66363817    -0.17870
C1414       C  0.42684614  0.70165426  0.63827310     0.10520
S1415       S  0.41748696  0.69870046  0.79410803    -0.32840
S1416       S  0.42872782  0.71306852  0.57858591    -0.32840
H1417       H  0.47524532  0.72195479  0.57572307     0.28520
H1418       H  0.46340894  0.70538468  0.80247074     0.28520
H1419       H  0.36417342  0.66246361  0.72696404     0.19110
H1420       H  0.47824292  0.75020172  0.64625662     0.19120
C1421       C  0.33218764  0.66573133  0.60437001    -0.06710
C1422       C  0.32628040  0.71191337  0.61289406    -0.17840
C1423       C  0.30923700  0.74045518  0.58039818     0.10480
C1424       C  0.28711207  0.72229420  0.54303585    -0.06640
C1425       C  0.28432774  0.67574075  0.53927380    -0.17870
C1426       C  0.30812972  0.64739097  0.56740958     0.10520
S1427       S  0.32374740  0.79847147  0.58387745    -0.32840
S1428       S  0.30507921  0.58897957  0.55257820    -0.32840
H1429       H  0.31496278  0.57044579  0.59435237     0.28520
H1430       H  0.34445197  0.79773020  0.62619376     0.28520
H1431       H  0.33897170  0.72698932  0.64321418     0.19110
H1432       H  0.26643632  0.66104074  0.51142726     0.19120
C1433       C  0.33903444  0.60770589  0.66868182    -0.06710
C1434       C  0.36618417  0.58366625  0.69903955    -0.17840
C1435       C  0.34772181  0.56135372  0.73603082     0.10480
C1436       C  0.30192420  0.54945522  0.73637658    -0.06640
C1437       C  0.27447253  0.57083781  0.70512753    -0.17870
C1438       C  0.29110095  0.60399403  0.67611844     0.10520
S1439       S  0.38023073  0.56333062  0.78653931    -0.32840
S1440       S  0.24877358  0.64060598  0.65332152    -0.32840
H1441       H  0.21315929  0.62904726  0.68290671     0.28520
H1442       H  0.34261865  0.57304880  0.81429565     0.28520
H1443       H  0.40227702  0.58881739  0.69871999     0.19110
H1444       H  0.23974482  0.56133776  0.70253609     0.19120
loop_ 
_geom_bond_atom_site_label_1 
_geom_bond_atom_site_label_2 
_geom_bond_distance 
_geom_bond_site_symmetry_2 
_ccdc_geom_bond_type 
C1           C52   1.567       .  S
C1         C1409   1.583       .  S
C1         C1421   1.551       .  S
C1         C1433   1.580       .  S
C2           C58   1.572       .  S
C2           N20   1.358       .  A
C2           C39   1.478       .  S
N3           N20   1.328       .  A
N3           N25   1.317       .  A
N3          Co40   2.111       .  S
C4           N29   1.342       .  A
C4           C42   1.470       .  S
C4           H49   1.078       .  S
H5           C46   1.080       .  S
C6           N30   1.345       .  A
C6           C10   1.493       .  S
C6           H35   1.081       .  S
Co7          N25   2.105       .  S
Co7          N15   2.100       .  S
Co7          N47   2.168       .  S
Co7          N23   2.122       .  S
Co7         Cl51   2.479       .  S
N8           C46   1.348       .  A
N8           N15   1.319       .  A
N8           Co9   2.114       .  S
Co9          N12   2.061       .  S
Co9          N29   2.081       .  S
Co9          N16   2.143       .  S
Co9         Cl51   2.454       .  S
C10          C60   1.552       .  S
C10          N48   1.345       .  A
N11          N18   1.319       .  A
N11          N41   1.329       .  A
N11         Co44   2.092       .  S
N12          N30   1.320       .  A
N12          N48   1.329       .  A
N13          C42   1.360       .  A
N13          N23   1.324       .  A
H14          C39   1.080       .  S
N15          N36   1.326       .  A
N16          N34   1.317       .  A
N16          N21   1.335       .  A
C17          C55   1.568       .  S
C17          N21   1.369       .  A
C17          C45   1.469       .  S
N18          C33   1.343       .  A
N18         Co40   2.121       .  S
C19          N47   1.359       .  A
C19          C22   1.492       .  S
C19          H53   1.073       .  S
C22          C57   1.593       .  S
C22          N43   1.359       .  A
N23          N29   1.320       .  A
N24          C50   1.347       .  A
N24          N26   1.317       .  A
N24         Co40   2.129       .  S
N25          C39   1.346       .  A
N26          N54   1.331       .  A
N26         Co44   2.108       .  S
H27          C50   1.077       .  S
H28          C45   1.077       .  S
N30         Co44   2.143       .  S
N31          N43   1.332       .  A
N31          N47   1.324       .  A
N31         Co40   2.121       .  S
C32          C56   1.560       .  S
C32          N36   1.361       .  A
C32          C46   1.476       .  S
C33          C52   1.481       .  S
C33          H37   1.080       .  S
N34          C45   1.337       .  A
N34         Co44   2.068       .  S
C38          C61   1.586       .  S
C38          N54   1.358       .  A
C38          C50   1.494       .  S
Co40        Cl51   2.451       .  S
N41          C52   1.357       .  A
C42          C59   1.560       .  S
Co44        Cl51   2.475       .  S
C55        C1373   1.584       .  S
C55        C1385   1.599       .  S
C55        C1397   1.580       .  S
C56        C1337   1.568       .  S
C56        C1352   1.592       .  S
C56        C1361   1.568       .  S
C57        C1301   1.560       .  S
C57        C1313   1.572       .  S
C57        C1325   1.581       .  S
C58        C1265   1.555       .  S
C58        C1277   1.579       .  S
C58        C1289   1.560       .  S
C59        C1229   1.588       .  S
C59        C1241   1.598       .  S
C59        C1253   1.598       .  S
C60        C1193   1.589       .  S
C60        C1205   1.586       .  S
C60        C1217   1.595       .  S
C61        C1157   1.578       .  S
C61        C1172   1.562       .  S
C61        C1181   1.576       .  S
C62          C63   1.377       .  D
C62        C1124   1.506       .  S
C62        C1145   1.496   1_554  S
C63        C1112   1.497   1_554  S
C63        C1133   1.487       .  S
C64          C65   1.369       .  D
C64        C1073   1.493       .  S
C64        C1097   1.509   1_545  S
C65        C1061   1.492   1_545  S
C65        C1088   1.507       .  S
C66          C67   1.383       .  D
C66        C1025   1.485       .  S
C66        C1052   1.544   1_655  S
C67        C1016   1.474   1_655  S
C67        C1037   1.521       .  S
C68          C69   1.385       .  D
C68        C1256   1.512       .  S
C68        C1364   1.550       .  S
C69         C992   1.507       .  S
C69        C1004   1.479       .  S
C70          C71   1.380       .  D
C70        C1220   1.526       .  S
C70        C1349   1.513       .  S
C71         C968   1.496       .  S
C71         C980   1.513       .  S
C72          C73   1.370       .  D
C72        C1292   1.496       .  S
C72        C1340   1.476       .  S
C73         C941   1.496       .  S
C73         C953   1.496       .  S
C74          C75   1.374       .  D
C74         C920   1.488       .  S
C74         C932   1.483   1_554  S
C75         C893   1.524       .  S
C75         C908   1.522   1_554  S
C76          C77   1.372       .  D
C76         C872   1.501       .  S
C76         C881   1.486   1_554  S
C77         C845   1.531       .  S
C77         C860   1.526   1_554  S
C78          C79   1.375       .  D
C78         C824   1.491       .  S
C78         C836   1.498   1_655  S
C79         C797   1.503   1_655  S
C79         C809   1.535       .  S
C80          C81   1.378       .  D
C80        C1232   1.546       .  S
C80        C1328   1.493       .  S
C81         C776   1.512       .  S
C81         C785   1.472       .  S
C82          C83   1.388       .  D
C82        C1208   1.506       .  S
C82        C1436   1.511       .  S
C83         C752   1.509       .  S
C83         C764   1.519       .  S
C84          C85   1.560       .  S
C84         C713   1.572       .  S
C84         C725   1.560       .  S
C84         C740   1.559       .  S
C85         N103   1.357       .  A
C85         C122   1.482       .  S
N86         N103   1.331       .  A
N86         N108   1.318       .  A
N86        Co123   2.098   1_656  S
C87         N112   1.344       .  A
C87         C125   1.479       .  S
C87         H132   1.082       .  S
H88         C129   1.079       .  S
C89         N113   1.345       .  A
C89          C93   1.479       .  S
C89         H118   1.082       .  S
Co90        N108   2.115   1_455  S
Co90         N98   2.106   1_455  S
Co90        N130   2.108       .  S
Co90        N106   2.111       .  S
Co90       Cl134   2.463   1_556  S
N91         C129   1.347       .  A
N91          N98   1.321       .  A
N91         Co92   2.122   1_656  S
Co92         N95   2.084   1_455  S
Co92        N112   2.111   1_554  S
Co92         N99   2.139       .  S
Co92       Cl134   2.471       .  S
C93         C138   1.551       .  S
C93         N131   1.350       .  A
N94         N101   1.319       .  A
N94         N124   1.332       .  A
N94        Co127   2.143   1_655  S
N95         N113   1.321       .  A
N95         N131   1.326       .  A
N96         C125   1.356       .  A
N96         N106   1.330       .  A
H97         C122   1.077       .  S
N98         N119   1.329       .  A
N99         N117   1.319       .  A
N99         N104   1.336       .  A
C100        C146   1.584       .  S
C100        N104   1.370       .  A
C100        C128   1.478       .  S
N101        C116   1.345       .  A
N101       Co123   2.100   1_655  S
C102        N130   1.343       .  A
C102        C105   1.481       .  S
C102        H136   1.078       .  S
C105        C140   1.562       .  S
C105        N126   1.350       .  A
N106        N112   1.321       .  A
N107        C133   1.343       .  A
N107        N109   1.316       .  A
N107       Co123   2.097       .  S
N108        C122   1.343       .  A
N109        N137   1.329       .  A
N109       Co127   2.095       .  S
H110        C133   1.081       .  S
H111        C128   1.075       .  S
N113       Co127   2.116   1_655  S
N114        N126   1.322       .  A
N114        N130   1.318       .  A
N114       Co123   2.085   1_556  S
C115        C141   1.567       .  S
C115        N119   1.359       .  A
C115        C129   1.481       .  S
C116        C135   1.481       .  S
C116        H120   1.077       .  S
N117        C128   1.341       .  A
N117       Co127   2.111       .  S
C121        C145   1.539       .  S
C121        N137   1.356       .  A
C121        C133   1.471       .  S
Co123      Cl134   2.465       .  S
N124        C135   1.368       .  A
C125        C139   1.571       .  S
Co127      Cl134   2.457       .  S
C135        C142   1.579       .  S
C138        C788   1.554       .  S
C138        C869   1.577       .  S
C138       C1040   1.560       .  S
C139        C761   1.581       .  S
C139        C833   1.547       .  S
C139       C1109   1.565       .  S
C140        C704   1.571       .  S
C140        C749   1.569       .  S
C140        C905   1.587       .  S
C141        C689   1.572       .  S
C141        C821   1.565       .  S
C141        C884   1.566       .  S
C142        C668   1.601       .  S
C142        C677   1.583       .  S
C142        C773   1.557       .  S
C143        C144   1.385       .  D
C143       C1169   1.519       .  S
C143       C1376   1.498       .  S
C144        C692   1.511       .  S
C144        C737   1.481       .  S
C145        C653   1.563       .  S
C145        C896   1.573       .  S
C145        C956   1.553       .  S
C146        C944   1.573       .  S
C146       C1013   1.559       .  S
C146       C1136   1.578       .  S
C147        C148   1.387       .  D
C147        C605   1.501   1_545  S
C147        C620   1.530       .  S
C148        C632   1.534       .  S
C148        C644   1.498   1_545  S
C149        C150   1.362       .  D
C149        C581   1.491       .  S
C149        C593   1.486       .  S
C150       C1268   1.475       .  S
C150       C1316   1.495       .  S
C151        C152   1.375       .  D
C151       C1196   1.528       .  S
C151       C1388   1.534       .  S
C152        C557   1.494       .  S
C152        C569   1.494       .  S
C153        C204   1.549       .  S
C153        C548   1.577       .  S
C153        C572   1.565       .  S
C153        C857   1.578       .  S
C154        C209   1.587       .  S
C154        N172   1.362       .  A
C154        C191   1.483       .  S
N155        N172   1.331       .  A
N155        N177   1.315       .  A
N155       Co192   2.125       .  S
C156        N181   1.344       .  A
C156        C194   1.480       .  S
C156        H201   1.079       .  S
H157        C198   1.080       .  S
C158        N182   1.337       .  A
C158        C162   1.483       .  S
C158        H187   1.081       .  S
Co159       N177   2.110   1_554  S
Co159       N167   2.085       .  S
Co159       N199   2.126   1_544  S
Co159       N175   2.087   1_545  S
Co159      Cl203   2.473       .  S
N160        C198   1.355       .  A
N160        N167   1.318       .  A
N160       Co161   2.127       .  S
Co161       N164   2.104       .  S
Co161       N181   2.109   1_545  S
Co161       N168   2.114   1_545  S
Co161      Cl203   2.446       .  S
C162        C215   1.588       .  S
C162        N200   1.364       .  A
N163        N170   1.321       .  A
N163        N193   1.332       .  A
N163       Co196   2.121   1_556  S
N164        N182   1.317       .  A
N164        N200   1.332       .  A
N165        C194   1.356       .  A
N165        N175   1.324       .  A
H166        C191   1.076       .  S
N167        N188   1.322       .  A
N168        N186   1.317       .  A
N168        N173   1.328       .  A
C169        C207   1.575       .  S
C169        N173   1.358       .  A
C169        C197   1.484       .  S
N170        C185   1.338       .  A
N170       Co192   2.097       .  S
C171        N199   1.346       .  A
C171        C174   1.486       .  S
C171        H205   1.078       .  S
C174        C208   1.584       .  S
C174        N195   1.366       .  A
N175        N181   1.319       .  A
N176        C202   1.350       .  A
N176        N178   1.321       .  A
N176       Co192   2.146   1_565  S
N177        C191   1.347       .  A
N178        N206   1.326       .  A
N178       Co196   2.086   1_566  S
H179        C202   1.079       .  S
H180        C197   1.075       .  S
N182       Co196   2.106       .  S
N183        N195   1.337       .  A
N183        N199   1.319       .  A
N183       Co192   2.130   1_565  S
C184        C214   1.549       .  S
C184        N188   1.355       .  A
C184        C198   1.483       .  S
C185        C204   1.463       .  S
C185        H189   1.080       .  S
N186        C197   1.344       .  A
N186       Co196   2.101   1_565  S
C190        C210   1.576       .  S
C190        N206   1.353       .  A
C190        C202   1.496       .  S
Co192      Cl203   2.454   1_556  S
N193        C204   1.364       .  A
C194        C211   1.550       .  S
Co196      Cl203   2.484       .  S
C207        C524   1.573       .  S
C207        C533   1.562       .  S
C207        C596   1.559       .  S
C208        C512   1.557       .  S
C208        C641   1.577       .  S
C208        C929   1.576       .  S
C209        C560   1.574       .  S
C209        C629   1.547       .  S
C209       C1148   1.576       .  S
C210        C473   1.580       .  S
C210        C488   1.555       .  S
C210        C500   1.575       .  S
C211        C584   1.567       .  S
C211        C917   1.565       .  S
C211       C1064   1.576       .  S
C212        C213   1.368       .  D
C212        C497   1.488       .  S
C212        C509   1.499       .  S
C213       C1160   1.494       .  S
C213       C1412   1.484       .  S
C214       C1001   1.575       .  S
C214       C1085   1.587       .  S
C214       C1121   1.562       .  S
C215        C464   1.576       .  S
C215        C848   1.587       .  S
C215        C989   1.570       .  S
C216        C217   1.365       .  D
C216        C440   1.499       .  S
C216        C449   1.509   1_455  S
C217        C656   1.494       .  S
C217        C680   1.495   1_455  S
C218        C219   1.373       .  D
C218        C461   1.506       .  S
C218        C536   1.491   1_545  S
C219        C416   1.504   1_545  S
C219        C425   1.486       .  S
C220        C221   1.392       .  D
C220        C389   1.570       .  S
C220        C404   1.499       .  S
C221       C1244   1.469       .  S
C221       C1400   1.546       .  S
C222        C223   1.369       .  D
C222       C1280   1.484       .  S
C222       C1424   1.497       .  S
C223        C368   1.487       .  S
C223        C380   1.487       .  S
C224        C225   1.545       .  S
C224        C392   1.553       .  S
C224        C428   1.562       .  S
C224       C1028   1.581       .  S
C225        N243   1.358       .  A
C225        C262   1.474       .  S
N226        N243   1.335       .  A
N226        N248   1.323       .  A
N226       Co263   2.108   1_545  S
C227        N252   1.341       .  A
C227        C265   1.489       .  S
C227        H272   1.076       .  S
H228        C269   1.080       .  S
C229        N253   1.340       .  A
C229        C233   1.473       .  S
C229        H258   1.082       .  S
Co230       N248   2.115   1_565  S
Co230       N238   2.140   1_565  S
Co230       N270   2.084       .  S
Co230       N246   2.127       .  S
Co230      Cl274   2.483       .  S
N231        C269   1.339       .  A
N231        N238   1.325       .  A
N231       Co232   2.135       .  S
Co232       N235   2.160   1_655  S
Co232       N252   2.116   1_545  S
Co232       N239   2.132   1_645  S
Co232      Cl274   2.481   1_545  S
C233        C286   1.581       .  S
C233        N271   1.371       .  A
N234        N241   1.314       .  A
N234        N264   1.337       .  A
N234       Co267   2.115       .  S
N235        N253   1.324       .  A
N235        N271   1.342       .  A
N236        C265   1.365       .  A
N236        N246   1.333       .  A
H237        C262   1.081       .  S
N238        N259   1.344       .  A
N239        N257   1.320       .  A
N239        N244   1.336       .  A
C240        C280   1.593       .  S
C240        N244   1.368       .  A
C240        C268   1.485       .  S
N241        C256   1.339       .  A
N241       Co263   2.108   1_445  S
C242        N270   1.347       .  A
C242        C245   1.471       .  S
C242        H276   1.081       .  S
C245        C278   1.536       .  S
C245        N266   1.354       .  A
N246        N252   1.321       .  A
N247        C273   1.341       .  A
N247        N249   1.317       .  A
N247       Co263   2.067   1_455  S
N248        C262   1.334       .  A
N249        N277   1.334       .  A
N249       Co267   2.161   1_565  S
H250        C273   1.078       .  S
H251        C268   1.077       .  S
N253       Co267   2.109       .  S
N254        N266   1.323       .  A
N254        N270   1.319       .  A
N254       Co263   2.106       .  S
C255        C281   1.584       .  S
C255        N259   1.365       .  A
C255        C269   1.484       .  S
C256        C275   1.479       .  S
C256        H260   1.080       .  S
N257        C268   1.342       .  A
N257       Co267   2.118   1_565  S
C261        C279   1.574       .  S
C261        N277   1.372       .  A
C261        C273   1.472       .  S
Co263      Cl274   2.469       .  S
N264        C275   1.364       .  A
C265        C282   1.590       .  S
Co267      Cl274   2.460   1_445  S
C275        C285   1.581       .  S
C278        C356   1.576       .  S
C278        C413   1.576       .  S
C278        C452   1.563       .  S
C279        C365   1.551       .  S
C279        C437   1.587       .  S
C279       C1100   1.570       .  S
C280        C344   1.549       .  S
C280        C377   1.563       .  S
C280        C608   1.551       .  S
C281        C329   1.565       .  S
C281        C401   1.597       .  S
C281        C812   1.563       .  S
C282        C293   1.553       .  S
C282        C305   1.553       .  S
C282        C317   1.570       .  S
C283        C284   1.374       .  D
C283        C320   1.511       .  S
C283        C353   1.493       .  S
C284       C1184   1.484       .  S
C284       C1304   1.506       .  S
C285        C977   1.572       .  S
C285       C1049   1.582       .  S
C285       C1076   1.579       .  S
C286        C617   1.552       .  S
C286        C800   1.590       .  S
C286        C965   1.580       .  S
C287        C288   1.371       .  D
C287        C296   1.488       .  S
C287        C341   1.486   1_655  S
C288        C701   1.511   1_655  S
C288        C728   1.498       .  S
C289        C290   1.383       .  D
C289        C476   1.519   1_545  S
C289        C545   1.489       .  S
C290        C308   1.497   1_545  S
C290        C332   1.502       .  S
C291        C292   1.389       .  D
C291        C665   1.525       .  S
C291        C716   1.480   1_554  S
C292        C485   1.551   1_554  S
C292        C521   1.478       .  S
C293        C294   1.411       .  A
C293        C298   1.430       .  A
C294        H303   1.081       .  S
C294        C295   1.390       .  A
C295        C296   1.408       .  A
C295        S299   1.809       .  S
C296        C297   1.397       .  A
C297        H304   1.069       .  S
C297        C298   1.394       .  A
C298        S300   1.814       .  S
S299        H302   1.407       .  S
S300        H301   1.406       .  S
C305        C306   1.401       .  A
C305        C310   1.444       .  A
C306        H315   1.080       .  S
C306        C307   1.382       .  A
C307        C308   1.421       .  A
C307        S311   1.797       .  S
C308        C309   1.396       .  A
C309        H316   1.081       .  S
C309        C310   1.398       .  A
C310        S312   1.816       .  S
S311        H314   1.392       .  S
S312        H313   1.407       .  S
C317        C318   1.410       .  A
C317        C322   1.444       .  A
C318        H327   1.084       .  S
C318        C319   1.397       .  A
C319        C320   1.417       .  A
C319        S323   1.800       .  S
C320        C321   1.397       .  A
C321        H328   1.083       .  S
C321        C322   1.405       .  A
C322        S324   1.800       .  S
S323        H326   1.402       .  S
S324        H325   1.402       .  S
C329        C330   1.416       .  A
C329        C334   1.432       .  A
C330        H339   1.081       .  S
C330        C331   1.400       .  A
C331        C332   1.401       .  A
C331        S335   1.809       .  S
C332        C333   1.406       .  A
C333        H340   1.079       .  S
C333        C334   1.412       .  A
C334        S336   1.805       .  S
S335        H338   1.395       .  S
S336        H337   1.408       .  S
C341        C342   1.390       .  A
C341        C346   1.415       .  A
C342        H351   1.080       .  S
C342        C343   1.391       .  A
C343        C344   1.445       .  A
C343        S347   1.811       .  S
C344        C345   1.410       .  A
C345        H352   1.084       .  S
C345        C346   1.391       .  A
C346        S348   1.803   1_455  S
S347        H350   1.407       .  S
S348        H349   1.403       .  S
C353        C354   1.386       .  A
C353        C358   1.414       .  A
C354        H363   1.077       .  S
C354        C355   1.394       .  A
C355        C356   1.439       .  A
C355        S359   1.793       .  S
C356        C357   1.418       .  A
C357        H364   1.072       .  S
C357        C358   1.398       .  A
C358        S360   1.802       .  S
S359        H362   1.405       .  S
S360        H361   1.397       .  S
C365        C366   1.420       .  A
C365        C370   1.429       .  A
C366        H375   1.075       .  S
C366        C367   1.396       .  A
C367        C368   1.405       .  A
C367        S371   1.808       .  S
C368        C369   1.405       .  A
C369        H376   1.084       .  S
C369        C370   1.390       .  A
C370        S372   1.814       .  S
S371        H374   1.394       .  S
S372        H373   1.391       .  S
C377        C378   1.410       .  A
C377        C382   1.444       .  A
C378        H387   1.083       .  S
C378        C379   1.382       .  A
C379        C380   1.409       .  A
C379        S383   1.800       .  S
C380        C381   1.396       .  A
C381        H388   1.082       .  S
C381        C382   1.403       .  A
C382        S384   1.809       .  S
S383        H386   1.397       .  S
S384        H385   1.407       .  S
C389        C390   1.416       .  A
C389        C394   1.444       .  A
C390        H399   1.075       .  S
C390        C391   1.382       .  A
C391        C392   1.409       .  A
C391        S395   1.810       .  S
C392        C393   1.410       .  A
C393        H400   1.084       .  S
C393        C394   1.414       .  A
C394        S396   1.780       .  S
S395        H398   1.389       .  S
S396        H397   1.407       .  S
C401        C402   1.423       .  A
C401        C406   1.444       .  A
C402        H411   1.073       .  S
C402        C403   1.402       .  A
C403        C404   1.406       .  A
C403        S407   1.800       .  S
C404        C405   1.403       .  A
C405        H412   1.084       .  S
C405        C406   1.403       .  A
C406        S408   1.818       .  S
S407        H410   1.406       .  S
S408        H409   1.397       .  S
C413        C414   1.416       .  A
C413        C418   1.424       .  A
C414        H423   1.082       .  S
C414        C415   1.406       .  A
C415        C416   1.415       .  A
C415        S419   1.800       .  S
C416        C417   1.397       .  A
C417        H424   1.071       .  S
C417        C418   1.392       .  A
C418        S420   1.796       .  S
S419        H422   1.406       .  S
S420        H421   1.404       .  S
C425        C426   1.400       .  A
C425        C430   1.401       .  A
C426        H435   1.075       .  S
C426        C427   1.400       .  A
C427        C428   1.429       .  A
C427        S431   1.803       .  S
C428        C429   1.421       .  A
C429        H436   1.083       .  S
C429        C430   1.385       .  A
C430        S432   1.801       .  S
S431        H434   1.409       .  S
S432        H433   1.403       .  S
C437        C438   1.419       .  A
C437        C442   1.451       .  A
C438        H447   1.075       .  S
C438        C439   1.389       .  A
C439        C440   1.402       .  A
C439        S443   1.806       .  S
C440        C441   1.397       .  A
C441        H448   1.084       .  S
C441        C442   1.411       .  A
C442        S444   1.806       .  S
S443        H446   1.402   1_455  S
S444        H445   1.390       .  S
C449        C450   1.410       .  A
C449        C454   1.402       .  A
C450        H459   1.081       .  S
C450        C451   1.414       .  A
C451        C452   1.434       .  A
C451        S455   1.801       .  S
C452        C453   1.410       .  A
C453        H460   1.078       .  S
C453        C454   1.380       .  A
C454        S456   1.801   1_655  S
S455        H458   1.404       .  S
S456        H457   1.408       .  S
C461        C462   1.398       .  A
C461        C466   1.406       .  A
C462        H471   1.074       .  S
C462        C463   1.401       .  A
C463        C464   1.447       .  A
C463        S467   1.817       .  S
C464        C465   1.418       .  A
C465        H472   1.076       .  S
C465        C466   1.399       .  A
C466        S468   1.802       .  S
S467        H470   1.390       .  S
S468        H469   1.406       .  S
C473        C474   1.417       .  A
C473        C478   1.423       .  A
C474        H483   1.079       .  S
C474        C475   1.401       .  A
C475        C476   1.415       .  A
C475        S479   1.792       .  S
C476        C477   1.410       .  A
C477        H484   1.078       .  S
C477        C478   1.402       .  A
C478        S480   1.802       .  S
S479        H482   1.400       .  S
S480        H481   1.406       .  S
C485        C486   1.418       .  A
C485        C490   1.413       .  A
C486        H495   1.071   1_556  S
C486        C487   1.396       .  A
C487        C488   1.423       .  A
C487        S491   1.814       .  S
C488        C489   1.423       .  A
C489        H496   1.083       .  S
C489        C490   1.412       .  A
C490        S492   1.803       .  S
S491        H494   1.408   1_556  S
S492        H493   1.408       .  S
C497        C498   1.391       .  A
C497        C502   1.408       .  A
C498        H507   1.083       .  S
C498        C499   1.398       .  A
C499        C500   1.447       .  A
C499        S503   1.808       .  S
C500        C501   1.414       .  A
C501        H508   1.083       .  S
C501        C502   1.386       .  A
C502        S504   1.802       .  S
S503        H506   1.408       .  S
S504        H505   1.392       .  S
C509        C510   1.415       .  A
C509        C514   1.407       .  A
C510        H519   1.079       .  S
C510        C511   1.389       .  A
C511        C512   1.420       .  A
C511        S515   1.812       .  S
C512        C513   1.427       .  A
C513        H520   1.080       .  S
C513        C514   1.391       .  A
C514        S516   1.805       .  S
S515        H518   1.398       .  S
S516        H517   1.397       .  S
C521        C522   1.397       .  A
C521        C526   1.406       .  A
C522        H531   1.084       .  S
C522        C523   1.397       .  A
C523        C524   1.443       .  A
C523        S527   1.824       .  S
C524        C525   1.425       .  A
C525        H532   1.076       .  S
C525        C526   1.381       .  A
C526        S528   1.820       .  S
S527        H530   1.397       .  S
S528        H529   1.404       .  S
C533        C534   1.421       .  A
C533        C538   1.430       .  A
C534        H543   1.078       .  S
C534        C535   1.388       .  A
C535        C536   1.408       .  A
C535        S539   1.798       .  S
C536        C537   1.405       .  A
C537        H544   1.083       .  S
C537        C538   1.396       .  A
C538        S540   1.805       .  S
S539        H542   1.394       .  S
S540        H541   1.391       .  S
C545        C546   1.392       .  A
C545        C550   1.411       .  A
C546        H555   1.080       .  S
C546        C547   1.394       .  A
C547        C548   1.440       .  A
C547        S551   1.812       .  S
C548        C549   1.418       .  A
C549        H556   1.078       .  S
C549        C550   1.402       .  A
C550        S552   1.806       .  S
S551        H554   1.408       .  S
S552        H553   1.401       .  S
C557        C558   1.395       .  A
C557        C562   1.413       .  A
C558        H567   1.082       .  S
C558        C559   1.411       .  A
C559        C560   1.449       .  A
C559        S563   1.813       .  S
C560        C561   1.411       .  A
C561        H568   1.084       .  S
C561        C562   1.388       .  A
C562        S564   1.809       .  S
S563        H566   1.407       .  S
S564        H565   1.406       .  S
C569        C570   1.390       .  A
C569        C574   1.418       .  A
C570        H579   1.071       .  S
C570        C571   1.394       .  A
C571        C572   1.430       .  A
C571        S575   1.805       .  S
C572        C573   1.417       .  A
C573        H580   1.077       .  S
C573        C574   1.402       .  A
C574        S576   1.809       .  S
S575        H578   1.406       .  S
S576        H577   1.398       .  S
C581        C582   1.405       .  A
C581        C586   1.407       .  A
C582        H591   1.083       .  S
C582        C583   1.408       .  A
C583        C584   1.430       .  A
C583        S587   1.799       .  S
C584        C585   1.404       .  A
C585        H592   1.062       .  S
C585        C586   1.381       .  A
C586        S588   1.809       .  S
S587        H590   1.404       .  S
S588        H589   1.399       .  S
C593        C594   1.395       .  A
C593        C598   1.407       .  A
C594        H603   1.082       .  S
C594        C595   1.395       .  A
C595        C596   1.441       .  A
C595        S599   1.799       .  S
C596        C597   1.412       .  A
C597        H604   1.084       .  S
C597        C598   1.386       .  A
C598        S600   1.798       .  S
S599        H602   1.407       .  S
S600        H601   1.400       .  S
C605        C606   1.397       .  A
C605        C610   1.403       .  A
C606        H615   1.080       .  S
C606        C607   1.386       .  A
C607        C608   1.441       .  A
C607        S611   1.812       .  S
C608        C609   1.413       .  A
C609        H616   1.079       .  S
C609        C610   1.395       .  A
C610        S612   1.798   1_565  S
S611        H614   1.399       .  S
S612        H613   1.407   1_545  S
C617        C618   1.409       .  A
C617        C622   1.435       .  A
C618        H627   1.069       .  S
C618        C619   1.384       .  A
C619        C620   1.414       .  A
C619        S623   1.810   1_545  S
C620        C621   1.400       .  A
C621        H628   1.064       .  S
C621        C622   1.414       .  A
C622        S624   1.811       .  S
S623        H626   1.407       .  S
S624        H625   1.407       .  S
C629        C630   1.437       .  A
C629        C634   1.404       .  A
C630        H639   1.082       .  S
C630        C631   1.413       .  A
C631        C632   1.409       .  A
C631        S635   1.807       .  S
C632        C633   1.408       .  A
C633        H640   1.066   1_545  S
C633        C634   1.362       .  A
C634        S636   1.803       .  S
S635        H638   1.400       .  S
S636        H637   1.399       .  S
C641        C642   1.425       .  A
C641        C646   1.442       .  A
C642        H651   1.077       .  S
C642        C643   1.390       .  A
C643        C644   1.398       .  A
C643        S647   1.801       .  S
C644        C645   1.408       .  A
C645        H652   1.085       .  S
C645        C646   1.405       .  A
C646        S648   1.814       .  S
S647        H650   1.401       .  S
S648        H649   1.386       .  S
C653        C654   1.417       .  A
C653        C658   1.442       .  A
C654        H663   1.076       .  S
C654        C655   1.396       .  A
C655        C656   1.408       .  A
C655        S659   1.804       .  S
C656        C657   1.399       .  A
C657        H664   1.085       .  S
C657        C658   1.395       .  A
C658        S660   1.820       .  S
S659        H662   1.388       .  S
S660        H661   1.389       .  S
C665        C666   1.396       .  A
C665        C670   1.407       .  A
C666        H675   1.059       .  S
C666        C667   1.403       .  A
C667        C668   1.438       .  A
C667        S671   1.806       .  S
C668        C669   1.424       .  A
C669        H676   1.064       .  S
C669        C670   1.400       .  A
C670        S672   1.798       .  S
S671        H674   1.409       .  S
S672        H673   1.406       .  S
C677        C678   1.413       .  A
C677        C682   1.456       .  A
C678        H687   1.071       .  S
C678        C679   1.376       .  A
C679        C680   1.398       .  A
C679        S683   1.797       .  S
C680        C681   1.399       .  A
C681        H688   1.083       .  S
C681        C682   1.409       .  A
C682        S684   1.810       .  S
S683        H686   1.407       .  S
S684        H685   1.369       .  S
C689        C690   1.421       .  A
C689        C694   1.419       .  A
C690        H699   1.076       .  S
C690        C691   1.399       .  A
C691        C692   1.425       .  A
C691        S695   1.819       .  S
C692        C693   1.406       .  A
C693        H700   1.066       .  S
C693        C694   1.396       .  A
C694        S696   1.805       .  S
S695        H698   1.404       .  S
S696        H697   1.407       .  S
C701        C702   1.391       .  A
C701        C706   1.413       .  A
C702        H711   1.065       .  S
C702        C703   1.385       .  A
C703        C704   1.428       .  A
C703        S707   1.804       .  S
C704        C705   1.428       .  A
C705        H712   1.077       .  S
C705        C706   1.414       .  A
C706        S708   1.795       .  S
S707        H710   1.407       .  S
S708        H709   1.405       .  S
C713        C714   1.426       .  A
C713        C718   1.432       .  A
C714        H723   1.079       .  S
C714        C715   1.391       .  A
C715        C716   1.408       .  A
C715        S719   1.814       .  S
C716        C717   1.407       .  A
C717        H724   1.084   1_556  S
C717        C718   1.395       .  A
C718        S720   1.813       .  S
S719        H722   1.397       .  S
S720        H721   1.397       .  S
C725        C726   1.413       .  A
C725        C730   1.427       .  A
C726        H735   1.083       .  S
C726        C727   1.397       .  A
C727        C728   1.414       .  A
C727        S731   1.805       .  S
C728        C729   1.396       .  A
C729        H736   1.078       .  S
C729        C730   1.390       .  A
C730        S732   1.806       .  S
S731        H734   1.399       .  S
S732        H733   1.406       .  S
C737        C738   1.402       .  A
C737        C742   1.411       .  A
C738        H747   1.072       .  S
C738        C739   1.398       .  A
C739        C740   1.437       .  A
C739        S743   1.824       .  S
C740        C741   1.419       .  A
C741        H748   1.073       .  S
C741        C742   1.378       .  A
C742        S744   1.814       .  S
S743        H746   1.397       .  S
S744        H745   1.398       .  S
C749        C750   1.418       .  A
C749        C754   1.435       .  A
C750        H759   1.083       .  S
C750        C751   1.404       .  A
C751        C752   1.414       .  A
C751        S755   1.800       .  S
C752        C753   1.403       .  A
C753        H760   1.079       .  S
C753        C754   1.398       .  A
C754        S756   1.822       .  S
S755        H758   1.394       .  S
S756        H757   1.397       .  S
C761        C762   1.422       .  A
C761        C766   1.434       .  A
C762        H771   1.075       .  S
C762        C763   1.397       .  A
C763        C764   1.408       .  A
C763        S767   1.791       .  S
C764        C765   1.409       .  A
C765        H772   1.076       .  S
C765        C766   1.406       .  A
C766        S768   1.812       .  S
S767        H770   1.406       .  S
S768        H769   1.390       .  S
C773        C774   1.410       .  A
C773        C778   1.424       .  A
C774        H783   1.083       .  S
C774        C775   1.399       .  A
C775        C776   1.419       .  A
C775        S779   1.797       .  S
C776        C777   1.407       .  A
C777        H784   1.079       .  S
C777        C778   1.403       .  A
C778        S780   1.810       .  S
S779        H782   1.393       .  S
S780        H781   1.398       .  S
C785        C786   1.401       .  A
C785        C790   1.407       .  A
C786        H795   1.080       .  S
C786        C787   1.386       .  A
C787        C788   1.430       .  A
C787        S791   1.821       .  S
C788        C789   1.425       .  A
C789        H796   1.076       .  S
C789        C790   1.386       .  A
C790        S792   1.814       .  S
S791        H794   1.394       .  S
S792        H793   1.399       .  S
C797        C798   1.407       .  A
C797        C802   1.404       .  A
C798        H807   1.083       .  S
C798        C799   1.418       .  A
C799        C800   1.433       .  A
C799        S803   1.796       .  S
C800        C801   1.422       .  A
C801        H808   1.068       .  S
C801        C802   1.389       .  A
C802        S804   1.810       .  S
S803        H806   1.407       .  S
S804        H805   1.395       .  S
C809        C810   1.410       .  A
C809        C814   1.431       .  A
C810        H819   1.059   1_655  S
C810        C811   1.358       .  A
C811        C812   1.412       .  A
C811        S815   1.824       .  S
C812        C813   1.426       .  A
C813        H820   1.077       .  S
C813        C814   1.418       .  A
C814        S816   1.799       .  S
S815        H818   1.385       .  S
S816        H817   1.401       .  S
C821        C822   1.407       .  A
C821        C826   1.437       .  A
C822        H831   1.079       .  S
C822        C823   1.386       .  A
C823        C824   1.413       .  A
C823        S827   1.796       .  S
C824        C825   1.399       .  A
C825        H832   1.083       .  S
C825        C826   1.403       .  A
C826        S828   1.804       .  S
S827        H830   1.401       .  S
S828        H829   1.407       .  S
C833        C834   1.415       .  A
C833        C838   1.434       .  A
C834        H843   1.079       .  S
C834        C835   1.393       .  A
C835        C836   1.404       .  A
C835        S839   1.798       .  S
C836        C837   1.398       .  A
C837        H844   1.074       .  S
C837        C838   1.392       .  A
C838        S840   1.804       .  S
S839        H842   1.407   1_455  S
S840        H841   1.405       .  S
C845        C846   1.414       .  A
C845        C850   1.400       .  A
C846        H855   1.070       .  S
C846        C847   1.422       .  A
C847        C848   1.439       .  A
C847        S851   1.797       .  S
C848        C849   1.407       .  A
C849        H856   1.070       .  S
C849        C850   1.381       .  A
C850        S852   1.804   1_554  S
S851        H854   1.404       .  S
S852        H853   1.408       .  S
C857        C858   1.408       .  A
C857        C862   1.440       .  A
C858        H867   1.073       .  S
C858        C859   1.389       .  A
C859        C860   1.400       .  A
C859        S863   1.790   1_556  S
C860        C861   1.410       .  A
C861        H868   1.081       .  S
C861        C862   1.420       .  A
C862        S864   1.800       .  S
S863        H866   1.405       .  S
S864        H865   1.404       .  S
C869        C870   1.424       .  A
C869        C874   1.435       .  A
C870        H879   1.074       .  S
C870        C871   1.392       .  A
C871        C872   1.407       .  A
C871        S875   1.801       .  S
C872        C873   1.402       .  A
C873        H880   1.079       .  S
C873        C874   1.404       .  A
C874        S876   1.807       .  S
S875        H878   1.391       .  S
S876        H877   1.391       .  S
C881        C882   1.396       .  A
C881        C886   1.404       .  A
C882        H891   1.081       .  S
C882        C883   1.393       .  A
C883        C884   1.436       .  A
C883        S887   1.812       .  S
C884        C885   1.423       .  A
C885        H892   1.074       .  S
C885        C886   1.394       .  A
C886        S888   1.803       .  S
S887        H890   1.394       .  S
S888        H889   1.386       .  S
C893        C894   1.407       .  A
C893        C898   1.420       .  A
C894        H903   1.085   1_554  S
C894        C895   1.400       .  A
C895        C896   1.444       .  A
C895        S899   1.828       .  S
C896        C897   1.414       .  A
C897        H904   1.077       .  S
C897        C898   1.404       .  A
C898        S900   1.798       .  S
S899        H902   1.390       .  S
S900        H901   1.407       .  S
C905        C906   1.418       .  A
C905        C910   1.430       .  A
C906        H915   1.059       .  S
C906        C907   1.392       .  A
C907        C908   1.406       .  A
C907        S911   1.805   1_556  S
C908        C909   1.410       .  A
C909        H916   1.069       .  S
C909        C910   1.408       .  A
C910        S912   1.802       .  S
S911        H914   1.397       .  S
S912        H913   1.406       .  S
C917        C918   1.409       .  A
C917        C922   1.424       .  A
C918        H927   1.083       .  S
C918        C919   1.385       .  A
C919        C920   1.420       .  A
C919        S923   1.808       .  S
C920        C921   1.402       .  A
C921        H928   1.080       .  S
C921        C922   1.403       .  A
C922        S924   1.794       .  S
S923        H926   1.394       .  S
S924        H925   1.399       .  S
C929        C930   1.425       .  A
C929        C934   1.441       .  A
C930        H939   1.074       .  S
C930        C931   1.387       .  A
C931        C932   1.407       .  A
C931        S935   1.815       .  S
C932        C933   1.395       .  A
C933        H940   1.076       .  S
C933        C934   1.398       .  A
C934        S936   1.823       .  S
S935        H938   1.399       .  S
S936        H937   1.395       .  S
C941        C942   1.402       .  A
C941        C946   1.411       .  A
C942        H951   1.085       .  S
C942        C943   1.398       .  A
C943        C944   1.438       .  A
C943        S947   1.819       .  S
C944        C945   1.420       .  A
C945        H952   1.079       .  S
C945        C946   1.391       .  A
C946        S948   1.799       .  S
S947        H950   1.395       .  S
S948        H949   1.392       .  S
C953        C954   1.400       .  A
C953        C958   1.409       .  A
C954        H963   1.081       .  S
C954        C955   1.403       .  A
C955        C956   1.440       .  A
C955        S959   1.814       .  S
C956        C957   1.401       .  A
C957        H964   1.065       .  S
C957        C958   1.382       .  A
C958        S960   1.794       .  S
S959        H962   1.408       .  S
S960        H961   1.407       .  S
C965        C966   1.411       .  A
C965        C970   1.443       .  A
C966        H975   1.084       .  S
C966        C967   1.392       .  A
C967        C968   1.414       .  A
C967        S971   1.807       .  S
C968        C969   1.393       .  A
C969        H976   1.080       .  S
C969        C970   1.400       .  A
C970        S972   1.807       .  S
S971        H974   1.399       .  S
S972        H973   1.408       .  S
C977        C978   1.422       .  A
C977        C982   1.427       .  A
C978        H987   1.072       .  S
C978        C979   1.405       .  A
C979        C980   1.415       .  A
C979        S983   1.803       .  S
C980        C981   1.399       .  A
C981        H988   1.072       .  S
C981        C982   1.399       .  A
C982        S984   1.806       .  S
S983        H986   1.392       .  S
S984        H985   1.402       .  S
C989        C990   1.418       .  A
C989        C994   1.426       .  A
C990        H999   1.084       .  S
C990        C991   1.408       .  A
C991        C992   1.416       .  A
C991        S995   1.797       .  S
C992        C993   1.397       .  A
C993       H1000   1.082       .  S
C993        C994   1.393       .  A
C994        S996   1.784       .  S
S995        H998   1.397       .  S
S996        H997   1.408       .  S
C1001      C1002   1.406       .  A
C1001      C1006   1.425       .  A
C1002      H1011   1.076       .  S
C1002      C1003   1.401       .  A
C1003      C1004   1.416       .  A
C1003      S1007   1.807       .  S
C1004      C1005   1.396       .  A
C1005      H1012   1.082       .  S
C1005      C1006   1.384       .  A
C1006      S1008   1.805       .  S
S1007      H1010   1.394       .  S
S1008      H1009   1.407       .  S
C1013      C1014   1.419       .  A
C1013      C1018   1.446       .  A
C1014      H1023   1.077       .  S
C1014      C1015   1.398       .  A
C1015      C1016   1.401       .  A
C1015      S1019   1.798       .  S
C1016      C1017   1.388       .  A
C1017      H1024   1.085       .  S
C1017      C1018   1.384       .  A
C1018      S1020   1.809       .  S
S1019      H1022   1.406       .  S
S1020      H1021   1.401       .  S
C1025      C1026   1.398       .  A
C1025      C1030   1.405       .  A
C1026      H1035   1.084       .  S
C1026      C1027   1.403       .  A
C1027      C1028   1.430       .  A
C1027      S1031   1.795       .  S
C1028      C1029   1.426       .  A
C1029      H1036   1.076       .  S
C1029      C1030   1.389       .  A
C1030      S1032   1.825       .  S
S1031      H1034   1.407       .  S
S1032      H1033   1.405       .  S
C1037      C1038   1.395       .  A
C1037      C1042   1.412       .  A
C1038      H1047   1.040       .  S
C1038      C1039   1.391       .  A
C1039      C1040   1.427       .  A
C1039      S1043   1.805       .  S
C1040      C1041   1.417       .  A
C1041      H1048   1.077       .  S
C1041      C1042   1.397       .  A
C1042      S1044   1.798       .  S
S1043      H1046   1.405       .  S
S1044      H1045   1.408       .  S
C1049      C1050   1.400       .  A
C1049      C1054   1.442       .  A
C1050      H1059   1.069       .  S
C1050      C1051   1.376       .  A
C1051      C1052   1.407       .  A
C1051      S1055   1.799   1_455  S
C1052      C1053   1.415       .  A
C1053      H1060   1.063       .  S
C1053      C1054   1.417       .  A
C1054      S1056   1.809       .  S
S1055      H1058   1.405       .  S
S1056      H1057   1.397       .  S
C1061      C1062   1.393       .  A
C1061      C1066   1.411       .  A
C1062      H1071   1.077       .  S
C1062      C1063   1.380       .  A
C1063      C1064   1.433       .  A
C1063      S1067   1.803       .  S
C1064      C1065   1.429       .  A
C1065      H1072   1.080       .  S
C1065      C1066   1.405       .  A
C1066      S1068   1.806       .  S
S1067      H1070   1.408       .  S
S1068      H1069   1.398       .  S
C1073      C1074   1.402       .  A
C1073      C1078   1.401       .  A
C1074      H1083   1.084       .  S
C1074      C1075   1.399       .  A
C1075      C1076   1.433       .  A
C1075      S1079   1.813       .  S
C1076      C1077   1.429       .  A
C1077      H1084   1.071       .  S
C1077      C1078   1.391       .  A
C1078      S1080   1.804       .  S
S1079      H1082   1.407       .  S
S1080      H1081   1.396       .  S
C1085      C1086   1.421       .  A
C1085      C1090   1.433       .  A
C1086      H1095   1.083       .  S
C1086      C1087   1.402       .  A
C1087      C1088   1.415       .  A
C1087      S1091   1.804       .  S
C1088      C1089   1.400       .  A
C1089      H1096   1.085       .  S
C1089      C1090   1.398       .  A
C1090      S1092   1.812       .  S
S1091      H1094   1.394       .  S
S1092      H1093   1.383       .  S
C1097      C1098   1.402       .  A
C1097      C1102   1.411       .  A
C1098      H1107   1.074       .  S
C1098      C1099   1.397       .  A
C1099      C1100   1.434       .  A
C1099      S1103   1.794       .  S
C1100      C1101   1.414       .  A
C1101      H1108   1.074       .  S
C1101      C1102   1.383       .  A
C1102      S1104   1.800   1_565  S
S1103      H1106   1.408       .  S
S1104      H1105   1.404   1_545  S
C1109      C1110   1.410       .  A
C1109      C1114   1.441       .  A
C1110      H1119   1.084       .  S
C1110      C1111   1.384       .  A
C1111      C1112   1.410       .  A
C1111      S1115   1.800       .  S
C1112      C1113   1.399       .  A
C1113      H1120   1.082       .  S
C1113      C1114   1.402       .  A
C1114      S1116   1.812       .  S
S1115      H1118   1.408       .  S
S1116      H1117   1.408       .  S
C1121      C1122   1.414       .  A
C1121      C1126   1.435       .  A
C1122      H1131   1.082       .  S
C1122      C1123   1.396       .  A
C1123      C1124   1.415       .  A
C1123      S1127   1.793       .  S
C1124      C1125   1.406       .  A
C1125      H1132   1.082       .  S
C1125      C1126   1.399       .  A
C1126      S1128   1.818       .  S
S1127      H1130   1.400       .  S
S1128      H1129   1.408   1_554  S
C1133      C1134   1.394       .  A
C1133      C1138   1.405       .  A
C1134      H1143   1.079       .  S
C1134      C1135   1.389       .  A
C1135      C1136   1.437       .  A
C1135      S1139   1.804       .  S
C1136      C1137   1.422       .  A
C1137      H1144   1.082       .  S
C1137      C1138   1.405       .  A
C1138      S1140   1.805       .  S
S1139      H1142   1.400       .  S
S1140      H1141   1.405       .  S
C1145      C1146   1.398       .  A
C1145      C1150   1.407       .  A
C1146      H1155   1.080       .  S
C1146      C1147   1.394       .  A
C1147      C1148   1.442       .  A
C1147      S1151   1.823       .  S
C1148      C1149   1.423       .  A
C1149      H1156   1.077       .  S
C1149      C1150   1.395       .  A
C1150      S1152   1.800       .  S
S1151      H1154   1.389       .  S
S1152      H1153   1.404       .  S
C1157      C1158   1.426       .  A
C1157      C1162   1.439       .  A
C1158      H1167   1.078       .  S
C1158      C1159   1.387       .  A
C1159      C1160   1.403       .  A
C1159      S1163   1.799       .  S
C1160      C1161   1.402       .  A
C1161      H1168   1.084       .  S
C1161      C1162   1.395       .  A
C1162      S1164   1.813       .  S
S1163      H1166   1.402       .  S
S1164      H1165   1.392       .  S
C1169      C1170   1.415       .  A
C1169      C1174   1.413       .  A
C1170      H1179   1.083       .  S
C1170      C1171   1.410       .  A
C1171      C1172   1.425       .  A
C1171      S1175   1.804       .  S
C1172      C1173   1.415       .  A
C1173      H1180   1.078       .  S
C1173      C1174   1.390       .  A
C1174      S1176   1.786       .  S
S1175      H1178   1.393       .  S
S1176      H1177   1.409       .  S
C1181      C1182   1.414       .  A
C1181      C1186   1.444       .  A
C1182      H1191   1.081       .  S
C1182      C1183   1.386       .  A
C1183      C1184   1.404       .  A
C1183      S1187   1.801       .  S
C1184      C1185   1.393       .  A
C1185      H1192   1.082       .  S
C1185      C1186   1.401       .  A
C1186      S1188   1.799       .  S
S1187      H1190   1.401       .  S
S1188      H1189   1.407       .  S
C1193      C1194   1.421       .  A
C1193      C1198   1.437       .  A
C1194      H1203   1.082       .  S
C1194      C1195   1.416       .  A
C1195      C1196   1.425       .  A
C1195      S1199   1.799       .  S
C1196      C1197   1.398       .  A
C1197      H1204   1.085       .  S
C1197      C1198   1.394       .  A
C1198      S1200   1.794       .  S
S1199      H1202   1.407       .  S
S1200      H1201   1.398       .  S
C1205      C1206   1.415       .  A
C1205      C1210   1.438       .  A
C1206      H1215   1.075       .  S
C1206      C1207   1.394       .  A
C1207      C1208   1.417       .  A
C1207      S1211   1.802       .  S
C1208      C1209   1.406       .  A
C1209      H1216   1.084       .  S
C1209      C1210   1.409       .  A
C1210      S1212   1.816       .  S
S1211      H1214   1.389       .  S
S1212      H1213   1.395       .  S
C1217      C1218   1.425       .  A
C1217      C1222   1.439       .  A
C1218      H1227   1.074       .  S
C1218      C1219   1.419       .  A
C1219      C1220   1.411       .  A
C1219      S1223   1.795       .  S
C1220      C1221   1.390       .  A
C1221      H1228   1.076       .  S
C1221      C1222   1.401       .  A
C1222      S1224   1.797       .  S
S1223      H1226   1.407       .  S
S1224      H1225   1.405       .  S
C1229      C1230   1.410       .  A
C1229      C1234   1.439       .  A
C1230      H1239   1.074       .  S
C1230      C1231   1.378       .  A
C1231      C1232   1.406       .  A
C1231      S1235   1.807       .  S
C1232      C1233   1.419       .  A
C1233      H1240   1.065       .  S
C1233      C1234   1.422       .  A
C1234      S1236   1.811       .  S
S1235      H1238   1.402       .  S
S1236      H1237   1.396       .  S
C1241      C1242   1.430       .  A
C1241      C1246   1.457       .  A
C1242      H1251   1.078       .  S
C1242      C1243   1.395       .  A
C1243      C1244   1.403       .  A
C1243      S1247   1.805       .  S
C1244      C1245   1.378       .  A
C1245      H1252   1.087       .  S
C1245      C1246   1.394       .  A
C1246      S1248   1.797       .  S
S1247      H1250   1.404       .  S
S1248      H1249   1.410       .  S
C1253      C1254   1.408       .  A
C1253      C1258   1.451       .  A
C1254      H1263   1.076       .  S
C1254      C1255   1.393       .  A
C1255      C1256   1.392       .  A
C1255      S1259   1.789       .  S
C1256      C1257   1.398       .  A
C1257      H1264   1.072       .  S
C1257      C1258   1.410       .  A
C1258      S1260   1.799       .  S
S1259      H1262   1.401       .  S
S1260      H1261   1.391       .  S
C1265      C1266   1.426       .  A
C1265      C1270   1.432       .  A
C1266      H1275   1.079       .  S
C1266      C1267   1.384       .  A
C1267      C1268   1.402       .  A
C1267      S1271   1.800       .  S
C1268      C1269   1.397       .  A
C1269      H1276   1.083       .  S
C1269      C1270   1.389       .  A
C1270      S1272   1.800       .  S
S1271      H1274   1.400       .  S
S1272      H1273   1.395       .  S
C1277      C1278   1.426       .  A
C1277      C1282   1.444       .  A
C1278      H1287   1.077       .  S
C1278      C1279   1.392       .  A
C1279      C1280   1.403       .  A
C1279      S1283   1.804       .  S
C1280      C1281   1.398       .  A
C1281      H1288   1.085       .  S
C1281      C1282   1.395       .  A
C1282      S1284   1.824       .  S
S1283      H1286   1.403       .  S
S1284      H1285   1.394       .  S
C1289      C1290   1.409       .  A
C1289      C1294   1.441       .  A
C1290      H1299   1.084       .  S
C1290      C1291   1.387       .  A
C1291      C1292   1.409       .  A
C1291      S1295   1.793       .  S
C1292      C1293   1.397       .  A
C1293      H1300   1.082       .  S
C1293      C1294   1.397       .  A
C1294      S1296   1.801       .  S
S1295      H1298   1.408       .  S
S1296      H1297   1.407       .  S
C1301      C1302   1.413       .  A
C1301      C1306   1.443       .  A
C1302      H1311   1.083       .  S
C1302      C1303   1.399       .  A
C1303      C1304   1.416       .  A
C1303      S1307   1.799       .  S
C1304      C1305   1.390       .  A
C1305      H1312   1.065       .  S
C1305      C1306   1.396       .  A
C1306      S1308   1.814       .  S
S1307      H1310   1.404       .  S
S1308      H1309   1.407       .  S
C1313      C1314   1.425       .  A
C1313      C1318   1.429       .  A
C1314      H1323   1.077       .  S
C1314      C1315   1.392       .  A
C1315      C1316   1.405       .  A
C1315      S1319   1.800       .  S
C1316      C1317   1.405       .  A
C1317      H1324   1.079       .  S
C1317      C1318   1.400       .  A
C1318      S1320   1.811       .  S
S1319      H1322   1.401       .  S
S1320      H1321   1.406       .  S
C1325      C1326   1.419       .  A
C1325      C1330   1.443       .  A
C1326      H1335   1.082       .  S
C1326      C1327   1.398       .  A
C1327      C1328   1.400       .  A
C1327      S1331   1.809       .  S
C1328      C1329   1.393       .  A
C1329      H1336   1.077       .  S
C1329      C1330   1.397       .  A
C1330      S1332   1.800       .  S
S1331      H1334   1.404       .  S
S1332      H1333   1.405       .  S
C1337      C1338   1.417       .  A
C1337      C1342   1.435       .  A
C1338      H1347   1.081       .  S
C1338      C1339   1.394       .  A
C1339      C1340   1.401       .  A
C1339      S1343   1.804       .  S
C1340      C1341   1.395       .  A
C1341      H1348   1.084       .  S
C1341      C1342   1.391       .  A
C1342      S1344   1.797       .  S
S1343      H1346   1.400       .  S
S1344      H1345   1.408       .  S
C1349      C1350   1.406       .  A
C1349      C1354   1.402       .  A
C1350      H1359   1.073       .  S
C1350      C1351   1.401       .  A
C1351      C1352   1.427       .  A
C1351      S1355   1.799       .  S
C1352      C1353   1.428       .  A
C1353      H1360   1.076       .  S
C1353      C1354   1.400       .  A
C1354      S1356   1.798       .  S
S1355      H1358   1.387       .  S
S1356      H1357   1.403       .  S
C1361      C1362   1.414       .  A
C1361      C1366   1.431       .  A
C1362      H1371   1.076       .  S
C1362      C1363   1.389       .  A
C1363      C1364   1.409       .  A
C1363      S1367   1.795       .  S
C1364      C1365   1.411       .  A
C1365      H1372   1.061       .  S
C1365      C1366   1.412       .  A
C1366      S1368   1.800       .  S
S1367      H1370   1.408       .  S
S1368      H1369   1.403       .  S
C1373      C1374   1.426       .  A
C1373      C1378   1.440       .  A
C1374      H1383   1.068       .  S
C1374      C1375   1.395       .  A
C1375      C1376   1.401       .  A
C1375      S1379   1.797       .  S
C1376      C1377   1.382       .  A
C1377      H1384   1.050       .  S
C1377      C1378   1.390       .  A
C1378      S1380   1.801       .  S
S1379      H1382   1.403       .  S
S1380      H1381   1.408       .  S
C1385      C1386   1.425       .  A
C1385      C1390   1.440       .  A
C1386      H1395   1.071       .  S
C1386      C1387   1.400       .  A
C1387      C1388   1.402       .  A
C1387      S1391   1.806       .  S
C1388      C1389   1.406       .  A
C1389      H1396   1.063       .  S
C1389      C1390   1.407       .  A
C1390      S1392   1.802       .  S
S1391      H1394   1.407       .  S
S1392      H1393   1.372       .  S
C1397      C1398   1.415       .  A
C1397      C1402   1.437       .  A
C1398      H1407   1.073       .  S
C1398      C1399   1.411       .  A
C1399      C1400   1.410       .  A
C1399      S1403   1.802       .  S
C1400      C1401   1.413       .  A
C1401      H1408   1.073       .  S
C1401      C1402   1.409       .  A
C1402      S1404   1.810       .  S
S1403      H1406   1.408       .  S
S1404      H1405   1.407       .  S
C1409      C1410   1.428       .  A
C1409      C1414   1.434       .  A
C1410      H1419   1.078       .  S
C1410      C1411   1.400       .  A
C1411      C1412   1.405       .  A
C1411      S1415   1.804       .  S
C1412      C1413   1.395       .  A
C1413      H1420   1.082       .  S
C1413      C1414   1.389       .  A
C1414      S1416   1.803       .  S
S1415      H1418   1.404       .  S
S1416      H1417   1.409       .  S
C1421      C1422   1.422       .  A
C1421      C1426   1.426       .  A
C1422      H1431   1.078       .  S
C1422      C1423   1.394       .  A
C1423      C1424   1.405       .  A
C1423      S1427   1.804       .  S
C1424      C1425   1.409       .  A
C1425      H1432   1.082       .  S
C1425      C1426   1.395       .  A
C1426      S1428   1.814       .  S
S1427      H1430   1.405       .  S
S1428      H1429   1.396       .  S
C1433      C1434   1.417       .  A
C1433      C1438   1.441       .  A
C1434      H1443   1.083       .  S
C1434      C1435   1.395       .  A
C1435      C1436   1.407       .  A
C1435      S1439   1.794       .  S
C1436      C1437   1.401       .  A
C1437      H1444   1.075       .  S
C1437      C1438   1.407       .  A
C1438      S1440   1.810       .  S
S1439      H1442   1.404       .  S
S1440      H1441   1.408       .  S
