geometry optimzed in LAMMPS
_audit_creation_date              2020-12-01 
_audit_creation_method            'lammps2cif' 
_symmetry_space_group_name_H-M    'P1' 
_symmetry_Int_Tables_number       1 
_symmetry_cell_setting            triclinic 
loop_ 
_symmetry_equiv_pos_as_xyz 
  x,y,z 
_cell_length_a                    23.74251918 
_cell_length_b                    23.56229096865189 
_cell_length_c                    23.56144267890066 
_cell_angle_alpha                 90.00278319597157 
_cell_angle_beta                  90.00055441701723 
_cell_angle_gamma                 89.99772023390032 
loop_ 
_atom_site_label 
_atom_site_type_symbol 
_atom_site_fract_x 
_atom_site_fract_y 
_atom_site_fract_z 
_atom_site_charge 
N1          N  0.43679832  0.43194775  0.10664784    -0.02600
N2          N  0.39915161  0.42007844  0.14613182    -0.54700
N3          N  0.06576468  0.39248644  0.06720196    -0.02300
N4          N  0.10340698  0.35299749  0.07907200    -0.56800
N5          N  0.06574123  0.43196552  0.10669809    -0.01900
N6          N  0.10336458  0.42009613  0.14620795    -0.54700
N7          N  0.43682281  0.39245609  0.06716451    -0.01500
N8          N  0.39919589  0.35295052  0.07902578    -0.57200
C9          C  0.37553007  0.37095261  0.12813236     0.99600
C10         C  0.12702580  0.37098854  0.12820382     0.99400
N11         N  0.06581450  0.43197545  0.39337643    -0.02800
N12         N  0.10346392  0.42011325  0.35389078    -0.55300
N13         N  0.43686839  0.39246033  0.43281441    -0.00900
N14         N  0.39924135  0.35295936  0.42093920    -0.56500
N15         N  0.43687240  0.43194343  0.39332561    -0.02800
N16         N  0.39924815  0.42006739  0.35381865    -0.55500
N17         N  0.06580894  0.39248912  0.43286127    -0.00500
N18         N  0.10345370  0.35299792  0.42100243    -0.56600
Mn19       Mn  0.00131612  0.39110632  0.00001015     1.18400
C20         C  0.12710978  0.37100067  0.37189452     1.01700
C21         C  0.37561040  0.37094897  0.37181351     1.02300
N22         N  0.06571133  0.06631705  0.10670060    -0.02800
N23         N  0.10333565  0.07819295  0.14620758    -0.59100
N24         N  0.43677477  0.10577126  0.06716469    -0.01600
N25         N  0.39912996  0.14526242  0.07902358    -0.59800
N26         N  0.43676928  0.06628495  0.10664954    -0.02300
N27         N  0.39911983  0.07814702  0.14613517    -0.59400
N28         N  0.06571524  0.10580010  0.06721191    -0.01200
N29         N  0.10334237  0.14530112  0.07908711    -0.60100
Mn30       Mn  0.50125532  0.99912916  0.10804206     1.10700
C31         C  0.12697332  0.12731142  0.12821270     1.02900
C32         C  0.37547386  0.12725959  0.12813143     1.03000
N33         N  0.43684264  0.06629473  0.39332805    -0.02300
N34         N  0.39921930  0.07816415  0.35381803    -0.57700
N35         N  0.06576123  0.10580413  0.43286172    -0.01600
N36         N  0.10338804  0.14530969  0.42100046    -0.54400
N37         N  0.06578560  0.06631242  0.39337846    -0.03000
N38         N  0.10343245  0.07818176  0.35389444    -0.57300
N39         N  0.43681919  0.10577390  0.43282402    -0.01900
N40         N  0.39917700  0.14526286  0.42095393    -0.54500
Mn41       Mn  0.00132853  0.49913132  0.39198412     1.20200
Mn42       Mn  0.50126772  0.10715395  0.50001601     1.10100
Cl43       Cl  0.00129192  0.99913027  0.00001312    -0.82400
C44         C  0.37555821  0.12727176  0.37182208     0.99900
C45         C  0.12705390  0.12730760  0.37189384     0.99700
C46         C  0.16707003  0.16235397  0.33684745     0.01100
C47         C  0.16711394  0.33594448  0.33684103     0.01100
C48         C  0.16704978  0.33594323  0.16324418     0.01100
C49         C  0.16700732  0.16235012  0.16324847     0.01100
C50         C  0.33553410  0.16231707  0.33678190     0.01100
C51         C  0.33546986  0.16231579  0.16318506     0.01100
C52         C  0.33551391  0.33590627  0.16317870     0.01100
C53         C  0.33557646  0.33591019  0.33677777     0.01100
C54         C  0.34361772  0.34552837  0.27560939    -0.09700
C55         C  0.34359677  0.34552232  0.22434348    -0.11300
C56         C  0.34355914  0.27474110  0.15354588    -0.09700
C57         C  0.34354118  0.22347687  0.15355413    -0.11300
C58         C  0.34357058  0.15268581  0.27561411    -0.09700
C59         C  0.34354944  0.15269326  0.22434836    -0.11300
C60         C  0.34362940  0.27474473  0.34639756    -0.09700
C61         C  0.34361343  0.22348038  0.34639676    -0.11300
C62         C  0.27664208  0.14903499  0.14991270    -0.09700
C63         C  0.22582148  0.14904580  0.14993452    -0.11300
C64         C  0.15895441  0.22351562  0.15362873    -0.09700
C65         C  0.15897041  0.27477990  0.15362942    -0.11300
C66         C  0.22586905  0.34921925  0.14992823    -0.09700
C67         C  0.27668998  0.34921177  0.14990805    -0.11300
C68         C  0.15901324  0.34557447  0.22441195    -0.09700
C69         C  0.15903436  0.34556693  0.27567774    -0.12000
C70         C  0.27676229  0.34921456  0.35009165    -0.09700
C71         C  0.22594167  0.34922548  0.35011336    -0.11300
C72         C  0.15896616  0.15273187  0.22441681    -0.09700
C73         C  0.15898723  0.15273785  0.27568271    -0.11300
C74         C  0.22589395  0.14904847  0.35011805    -0.09700
C75         C  0.27671488  0.14904095  0.35009793    -0.11300
C76         C  0.15902476  0.22351915  0.34648016    -0.09700
C77         C  0.15904273  0.27478340  0.34647201    -0.11300
N78         N  0.43679830  0.43194786  0.60664779    -0.02600
N79         N  0.39915146  0.42007852  0.64613175    -0.54700
N80         N  0.06576470  0.39248634  0.56720195    -0.02300
N81         N  0.10340694  0.35299754  0.57907209    -0.56800
N82         N  0.06574118  0.43196558  0.60669810    -0.01900
N83         N  0.10336441  0.42009617  0.64620800    -0.54700
N84         N  0.43682269  0.39245615  0.56716450    -0.01500
N85         N  0.39919589  0.35295061  0.57902573    -0.57200
C86         C  0.37552995  0.37095271  0.62813233     0.99600
C87         C  0.12702570  0.37098858  0.62820400     0.99400
N88         N  0.06581449  0.43197539  0.89337634    -0.02800
N89         N  0.10346381  0.42011325  0.85389067    -0.55300
N90         N  0.43686854  0.39246037  0.93281435    -0.00900
N91         N  0.39924150  0.35295942  0.92093914    -0.56500
N92         N  0.43687249  0.43194351  0.89332559    -0.02800
N93         N  0.39924827  0.42006747  0.85381860    -0.55500
N94         N  0.06580904  0.39248920  0.93286130    -0.00500
N95         N  0.10345393  0.35299801  0.92100243    -0.56600
Mn96       Mn  0.00131602  0.39110635  0.50001013     1.18400
C97         C  0.12710987  0.37100072  0.87189449     1.01700
C98         C  0.37561053  0.37094905  0.87181346     1.02300
N99         N  0.06571130  0.06631688  0.60670059    -0.02800
N100        N  0.10333552  0.07819295  0.64620756    -0.59100
N101        N  0.43677471  0.10577114  0.56716468    -0.01600
N102        N  0.39912989  0.14526230  0.57902362    -0.59800
N103        N  0.43676923  0.06628488  0.60664975    -0.02300
N104        N  0.39911999  0.07814709  0.64613535    -0.59400
N105        N  0.06571523  0.10580002  0.56721182    -0.01200
N106        N  0.10334226  0.14530098  0.57908701    -0.60100
Mn107      Mn  0.50125536  0.99912899  0.60804204     1.10700
C108        C  0.12697324  0.12731137  0.62821270     1.02900
C109        C  0.37547392  0.12725966  0.62813154     1.03000
N110        N  0.43684274  0.06629482  0.89332801    -0.02300
N111        N  0.39921936  0.07816417  0.85381816    -0.57700
N112        N  0.06576119  0.10580425  0.93286169    -0.01600
N113        N  0.10338814  0.14530977  0.92100044    -0.54400
N114        N  0.06578551  0.06631262  0.89337839    -0.03000
N115        N  0.10343232  0.07818189  0.85389436    -0.57300
N116        N  0.43681936  0.10577413  0.93282401    -0.01900
N117        N  0.39917714  0.14526297  0.92095393    -0.54500
Mn118      Mn  0.00132849  0.49913136  0.89198410     1.20200
Mn119      Mn  0.50126784  0.10715419  0.00001602     1.10100
Cl120      Cl  0.00129203  0.99913004  0.50001310    -0.82400
C121        C  0.37555819  0.12727182  0.87182214     0.99900
C122        C  0.12705393  0.12730764  0.87189384     0.99700
C123        C  0.16707002  0.16235404  0.83684744     0.01100
C124        C  0.16711398  0.33594451  0.83684103     0.01100
C125        C  0.16704975  0.33594327  0.66324421     0.01100
C126        C  0.16700721  0.16235013  0.66324841     0.01100
C127        C  0.33553414  0.16231715  0.83678193     0.01100
C128        C  0.33546979  0.16231580  0.66318507     0.01100
C129        C  0.33551387  0.33590628  0.66317869     0.01100
C130        C  0.33557657  0.33591028  0.83677773     0.01100
C131        C  0.34361778  0.34552847  0.77560936    -0.09700
C132        C  0.34359675  0.34552235  0.72434345    -0.11300
C133        C  0.34355903  0.27474112  0.65354583    -0.09700
C134        C  0.34354112  0.22347687  0.65355408    -0.11300
C135        C  0.34357046  0.15268587  0.77561417    -0.09700
C136        C  0.34354923  0.15269334  0.72434837    -0.11300
C137        C  0.34362956  0.27474482  0.84639749    -0.09700
C138        C  0.34361355  0.22348048  0.84639673    -0.11300
C139        C  0.27664203  0.14903489  0.64991261    -0.09700
C140        C  0.22582143  0.14904579  0.64993448    -0.11300
C141        C  0.15895423  0.22351560  0.65362865    -0.09700
C142        C  0.15897029  0.27477994  0.65362943    -0.11300
C143        C  0.22586902  0.34921932  0.64992822    -0.09700
C144        C  0.27668991  0.34921182  0.64990818    -0.11300
C145        C  0.15901339  0.34557455  0.72441197    -0.09700
C146        C  0.15903458  0.34556703  0.77567774    -0.12000
C147        C  0.27676234  0.34921455  0.85009168    -0.09700
C148        C  0.22594175  0.34922532  0.85011353    -0.11300
C149        C  0.15896600  0.15273194  0.72441678    -0.09700
C150        C  0.15898710  0.15273800  0.77568269    -0.11300
C151        C  0.22589398  0.14904853  0.85011796    -0.09700
C152        C  0.27671487  0.14904108  0.85009794    -0.11300
C153        C  0.15902480  0.22351921  0.84648030    -0.09700
C154        C  0.15904261  0.27478345  0.84647201    -0.11300
N155        N  0.43679828  0.93194791  0.10664780    -0.02600
N156        N  0.39915142  0.92007857  0.14613175    -0.54700
N157        N  0.06576471  0.89248644  0.06720196    -0.02300
N158        N  0.10340697  0.85299760  0.07907204    -0.56800
N159        N  0.06574123  0.93196566  0.10669808    -0.01900
N160        N  0.10336457  0.92009627  0.14620792    -0.54700
N161        N  0.43682268  0.89245603  0.06716454    -0.01500
N162        N  0.39919591  0.85295061  0.07902579    -0.57200
C163        C  0.37552998  0.87095271  0.12813242     0.99600
C164        C  0.12702576  0.87098864  0.12820389     0.99400
N165        N  0.06581440  0.93197535  0.39337641    -0.02800
N166        N  0.10346388  0.92011321  0.35389072    -0.55300
N167        N  0.43686842  0.89246033  0.43281441    -0.00900
N168        N  0.39924142  0.85295928  0.42093913    -0.56500
N169        N  0.43687230  0.93194342  0.39332567    -0.02800
N170        N  0.39924811  0.92006742  0.35381867    -0.55500
N171        N  0.06580897  0.89248916  0.43286127    -0.00500
N172        N  0.10345386  0.85299797  0.42100250    -0.56600
Mn173      Mn  0.00131618  0.89110623  0.00001015     1.18400
C174        C  0.12710985  0.87100075  0.37189456     1.01700
C175        C  0.37561045  0.87094891  0.37181351     1.02300
N176        N  0.06571128  0.56631704  0.10670061    -0.02800
N177        N  0.10333561  0.57819303  0.14620762    -0.59100
N178        N  0.43677479  0.60577130  0.06716471    -0.01600
N179        N  0.39913006  0.64526242  0.07902361    -0.59800
N180        N  0.43676933  0.56628488  0.10664952    -0.02300
N181        N  0.39911988  0.57814702  0.14613516    -0.59400
N182        N  0.06571527  0.60580007  0.06721191    -0.01200
N183        N  0.10334240  0.64530109  0.07908705    -0.60100
Mn184      Mn  0.50125532  0.49912906  0.10804207     1.10700
C185        C  0.12697328  0.62731142  0.12821272     1.02900
C186        C  0.37547391  0.62725953  0.12813149     1.03000
N187        N  0.43684270  0.56629490  0.39332803    -0.02300
N188        N  0.39921933  0.57816428  0.35381801    -0.57700
N189        N  0.06576115  0.60580425  0.43286173    -0.01600
N190        N  0.10338811  0.64530970  0.42100051    -0.54400
N191        N  0.06578552  0.56631256  0.39337839    -0.03000
N192        N  0.10343227  0.57818185  0.35389442    -0.57300
N193        N  0.43681923  0.60577393  0.43282402    -0.01900
N194        N  0.39917697  0.64526297  0.42095397    -0.54500
Mn195      Mn  0.00132841  0.99913121  0.39198412     1.20200
Mn196      Mn  0.50126772  0.60715409  0.50001601     1.10100
Cl197      Cl  0.00129189  0.49913017  0.00001313    -0.82400
C198        C  0.37555819  0.62727185  0.37182217     0.99900
C199        C  0.12705392  0.62730757  0.37189387     0.99700
C200        C  0.16706999  0.66235393  0.33684746     0.01100
C201        C  0.16711394  0.83594447  0.33684103     0.01100
C202        C  0.16704975  0.83594330  0.16324418     0.01100
C203        C  0.16700727  0.66235022  0.16324848     0.01100
C204        C  0.33553411  0.66231717  0.33678195     0.01100
C205        C  0.33546983  0.66231570  0.16318510     0.01100
C206        C  0.33551387  0.83590628  0.16317870     0.01100
C207        C  0.33557648  0.83591018  0.33677776     0.01100
C208        C  0.34361766  0.84552831  0.27560940    -0.09700
C209        C  0.34359662  0.84552237  0.22434348    -0.11300
C210        C  0.34355914  0.77474108  0.15354591    -0.09700
C211        C  0.34354118  0.72347677  0.15355419    -0.11300
C212        C  0.34357056  0.65268589  0.27561421    -0.09700
C213        C  0.34354930  0.65269312  0.22434842    -0.11300
C214        C  0.34362946  0.77474474  0.34639757    -0.09700
C215        C  0.34361349  0.72348048  0.34639681    -0.11300
C216        C  0.27664208  0.64903487  0.14991266    -0.09700
C217        C  0.22582146  0.64904585  0.14993457    -0.11300
C218        C  0.15895434  0.72351567  0.15362870    -0.09700
C219        C  0.15897029  0.77478000  0.15362938    -0.11300
C220        C  0.22586902  0.84921936  0.14992821    -0.09700
C221        C  0.27668996  0.84921185  0.14990801    -0.11300
C222        C  0.15901326  0.84557446  0.22441196    -0.09700
C223        C  0.15903441  0.84556701  0.27567774    -0.12000
C224        C  0.27676226  0.84921441  0.35009166    -0.09700
C225        C  0.22594168  0.84922537  0.35011338    -0.11300
C226        C  0.15896593  0.65273196  0.22441682    -0.09700
C227        C  0.15898701  0.65273779  0.27568272    -0.11300
C228        C  0.22589394  0.64904839  0.35011798    -0.09700
C229        C  0.27671488  0.64904107  0.35009794    -0.11300
C230        C  0.15902480  0.72351911  0.34648015    -0.09700
C231        C  0.15904271  0.77478342  0.34647199    -0.11300
N232        N  0.43679844  0.93194774  0.60664782    -0.02600
N233        N  0.39915156  0.92007844  0.64613176    -0.54700
N234        N  0.06576459  0.89248641  0.56720200    -0.02300
N235        N  0.10340701  0.85299758  0.57907211    -0.56800
N236        N  0.06574115  0.93196552  0.60669812    -0.01900
N237        N  0.10336443  0.92009628  0.64620800    -0.54700
N238        N  0.43682271  0.89245599  0.56716450    -0.01500
N239        N  0.39919586  0.85295060  0.57902568    -0.57200
C240        C  0.37552993  0.87095274  0.62813232     0.99600
C241        C  0.12702575  0.87098866  0.62820393     0.99400
N242        N  0.06581451  0.93197544  0.89337636    -0.02800
N243        N  0.10346382  0.92011327  0.85389063    -0.55300
N244        N  0.43686864  0.89246016  0.93281434    -0.00900
N245        N  0.39924157  0.85295925  0.92093908    -0.56500
N246        N  0.43687254  0.93194335  0.89332560    -0.02800
N247        N  0.39924830  0.92006743  0.85381867    -0.55500
N248        N  0.06580913  0.89248926  0.93286132    -0.00500
N249        N  0.10345404  0.85299811  0.92100247    -0.56600
Mn250      Mn  0.00131605  0.89110622  0.50001013     1.18400
C251        C  0.12710993  0.87100084  0.87189448     1.01700
C252        C  0.37561056  0.87094892  0.87181347     1.02300
N253        N  0.06571135  0.56631701  0.60670058    -0.02800
N254        N  0.10333559  0.57819294  0.64620749    -0.59100
N255        N  0.43677473  0.60577107  0.56716475    -0.01600
N256        N  0.39912982  0.64526227  0.57902358    -0.59800
N257        N  0.43676928  0.56628492  0.60664971    -0.02300
N258        N  0.39911987  0.57814707  0.64613537    -0.59400
N259        N  0.06571524  0.60580018  0.56721182    -0.01200
N260        N  0.10334230  0.64530110  0.57908707    -0.60100
Mn261      Mn  0.50125535  0.49912911  0.60804204     1.10700
C262        C  0.12697332  0.62731145  0.62821268     1.02900
C263        C  0.37547387  0.62725954  0.62813148     1.03000
N264        N  0.43684281  0.56629492  0.89332799    -0.02300
N265        N  0.39921944  0.57816423  0.85381803    -0.57700
N266        N  0.06576118  0.60580431  0.93286166    -0.01600
N267        N  0.10338803  0.64530973  0.92100042    -0.54400
N268        N  0.06578549  0.56631256  0.89337834    -0.03000
N269        N  0.10343238  0.57818180  0.85389443    -0.57300
N270        N  0.43681932  0.60577397  0.93282403    -0.01900
N271        N  0.39917689  0.64526283  0.92095405    -0.54500
Mn272      Mn  0.00132848  0.99913129  0.89198411     1.20200
Mn273      Mn  0.50126782  0.60715407  0.00001602     1.10100
Cl274      Cl  0.00129201  0.49913025  0.50001309    -0.82400
C275        C  0.37555815  0.62727173  0.87182219     0.99900
C276        C  0.12705399  0.62730757  0.87189383     0.99700
C277        C  0.16707005  0.66235400  0.83684746     0.01100
C278        C  0.16711404  0.83594457  0.83684104     0.01100
C279        C  0.16704973  0.83594328  0.66324421     0.01100
C280        C  0.16700726  0.66235015  0.66324844     0.01100
C281        C  0.33553416  0.66231713  0.83678193     0.01100
C282        C  0.33546982  0.66231580  0.66318506     0.01100
C283        C  0.33551388  0.83590633  0.66317868     0.01100
C284        C  0.33557662  0.83591023  0.83677771     0.01100
C285        C  0.34361783  0.84552840  0.77560935    -0.09700
C286        C  0.34359679  0.84552244  0.72434344    -0.11300
C287        C  0.34355906  0.77474116  0.65354586    -0.09700
C288        C  0.34354121  0.72347685  0.65355411    -0.11300
C289        C  0.34357050  0.65268588  0.77561416    -0.09700
C290        C  0.34354928  0.65269324  0.72434836    -0.11300
C291        C  0.34362962  0.77474474  0.84639750    -0.09700
C292        C  0.34361363  0.72348048  0.84639675    -0.11300
C293        C  0.27664206  0.64903499  0.64991260    -0.09700
C294        C  0.22582147  0.64904590  0.64993448    -0.11300
C295        C  0.15895426  0.72351564  0.65362865    -0.09700
C296        C  0.15897024  0.77477991  0.65362939    -0.11300
C297        C  0.22586903  0.84921925  0.64992824    -0.09700
C298        C  0.27668991  0.84921189  0.64990819    -0.11300
C299        C  0.15901338  0.84557451  0.72441197    -0.09700
C300        C  0.15903462  0.84556712  0.77567774    -0.12000
C301        C  0.27676239  0.84921448  0.85009167    -0.09700
C302        C  0.22594180  0.84922541  0.85011354    -0.11300
C303        C  0.15896605  0.65273197  0.72441680    -0.09700
C304        C  0.15898714  0.65273792  0.77568271    -0.11300
C305        C  0.22589401  0.64904846  0.85011796    -0.09700
C306        C  0.27671489  0.64904113  0.85009792    -0.11300
C307        C  0.15902486  0.72351919  0.84648030    -0.09700
C308        C  0.15904268  0.77478351  0.84647201    -0.11300
N309        N  0.93679828  0.43194778  0.10664782    -0.02600
N310        N  0.89915160  0.42007840  0.14613186    -0.54700
N311        N  0.56576471  0.39248645  0.06720196    -0.02300
N312        N  0.60340701  0.35299749  0.07907200    -0.56800
N313        N  0.56574125  0.43196551  0.10669809    -0.01900
N314        N  0.60336460  0.42009613  0.14620795    -0.54700
N315        N  0.93682267  0.39245609  0.06716447    -0.01500
N316        N  0.89919585  0.35295056  0.07902577    -0.57200
C317        C  0.87553005  0.37095259  0.12813242     0.99600
C318        C  0.62702582  0.37098854  0.12820382     0.99400
N319        N  0.56581452  0.43197545  0.39337643    -0.02800
N320        N  0.60346394  0.42011325  0.35389078    -0.55300
N321        N  0.93686839  0.39246033  0.43281441    -0.00900
N322        N  0.89924136  0.35295936  0.42093920    -0.56500
N323        N  0.93687241  0.43194343  0.39332561    -0.02800
N324        N  0.89924816  0.42006738  0.35381865    -0.55500
N325        N  0.56580895  0.39248912  0.43286127    -0.00500
N326        N  0.60345372  0.35299792  0.42100243    -0.56600
Mn327      Mn  0.50131616  0.39110632  0.00001015     1.18400
C328        C  0.62710980  0.37100067  0.37189452     1.01700
C329        C  0.87561042  0.37094897  0.37181350     1.02300
N330        N  0.56571134  0.06631705  0.10670059    -0.02800
N331        N  0.60333567  0.07819294  0.14620757    -0.59100
N332        N  0.93677477  0.10577126  0.06716470    -0.01600
N333        N  0.89912996  0.14526242  0.07902360    -0.59800
N334        N  0.93676929  0.06628495  0.10664954    -0.02300
N335        N  0.89911985  0.07814703  0.14613519    -0.59400
N336        N  0.56571525  0.10580010  0.06721191    -0.01200
N337        N  0.60334238  0.14530112  0.07908710    -0.60100
Mn338      Mn  0.00125531  0.99912916  0.10804206     1.10700
C339        C  0.62697333  0.12731141  0.12821269     1.02900
C340        C  0.87547387  0.12725960  0.12813147     1.03000
N341        N  0.93684263  0.06629474  0.39332801    -0.02300
N342        N  0.89921926  0.07816413  0.35381806    -0.57700
N343        N  0.56576123  0.10580413  0.43286178    -0.01600
N344        N  0.60338806  0.14530966  0.42100047    -0.54400
N345        N  0.56578556  0.06631244  0.39337842    -0.03000
N346        N  0.60343226  0.07818181  0.35389440    -0.57300
N347        N  0.93681918  0.10577394  0.43282401    -0.01900
N348        N  0.89917697  0.14526283  0.42095396    -0.54500
Mn349      Mn  0.50132854  0.49913132  0.39198412     1.20200
Mn350      Mn  0.00126771  0.10715395  0.50001599     1.10100
Cl351      Cl  0.50129194  0.99913027  0.00001312    -0.82400
C352        C  0.87555810  0.12727172  0.37182215     0.99900
C353        C  0.62705386  0.12730762  0.37189381     0.99700
C354        C  0.66707000  0.16235395  0.33684744     0.01100
C355        C  0.66711395  0.33594447  0.33684103     0.01100
C356        C  0.66704979  0.33594323  0.16324418     0.01100
C357        C  0.66700728  0.16235012  0.16324848     0.01100
C358        C  0.83553408  0.16231706  0.33678195     0.01100
C359        C  0.83546982  0.16231579  0.16318510     0.01100
C360        C  0.83551387  0.33590626  0.16317871     0.01100
C361        C  0.83557647  0.33591019  0.33677777     0.01100
C362        C  0.84361765  0.34552838  0.27560940    -0.09700
C363        C  0.84359658  0.34552233  0.22434349    -0.11300
C364        C  0.84355914  0.27474109  0.15354590    -0.09700
C365        C  0.84354118  0.22347686  0.15355416    -0.11300
C366        C  0.84357052  0.15268579  0.27561420    -0.09700
C367        C  0.84354927  0.15269325  0.22434841    -0.11300
C368        C  0.84362942  0.27474472  0.34639756    -0.09700
C369        C  0.84361344  0.22348039  0.34639680    -0.11300
C370        C  0.77664206  0.14903500  0.14991267    -0.09700
C371        C  0.72582146  0.14904579  0.14993457    -0.11300
C372        C  0.65895441  0.22351562  0.15362872    -0.09700
C373        C  0.65897043  0.27477990  0.15362941    -0.11300
C374        C  0.72586904  0.34921925  0.14992822    -0.09700
C375        C  0.77668997  0.34921176  0.14990799    -0.11300
C376        C  0.65901325  0.34557447  0.22441195    -0.09700
C377        C  0.65903438  0.34556693  0.27567774    -0.12000
C378        C  0.77676230  0.34921455  0.35009166    -0.09700
C379        C  0.72594169  0.34922548  0.35011336    -0.11300
C380        C  0.65896598  0.15273188  0.22441681    -0.09700
C381        C  0.65898717  0.15273785  0.27568270    -0.11300
C382        C  0.72589393  0.14904846  0.35011804    -0.09700
C383        C  0.77671486  0.14904097  0.35009795    -0.11300
C384        C  0.65902477  0.22351915  0.34648016    -0.09700
C385        C  0.65904274  0.27478339  0.34647201    -0.11300
N386        N  0.93679831  0.43194786  0.60664779    -0.02600
N387        N  0.89915147  0.42007851  0.64613176    -0.54700
N388        N  0.56576472  0.39248634  0.56720195    -0.02300
N389        N  0.60340695  0.35299754  0.57907209    -0.56800
N390        N  0.56574119  0.43196558  0.60669810    -0.01900
N391        N  0.60336443  0.42009617  0.64620800    -0.54700
N392        N  0.93682269  0.39245615  0.56716450    -0.01500
N393        N  0.89919590  0.35295061  0.57902573    -0.57200
C394        C  0.87552996  0.37095271  0.62813233     0.99600
C395        C  0.62702572  0.37098858  0.62820400     0.99400
N396        N  0.56581451  0.43197539  0.89337634    -0.02800
N397        N  0.60346382  0.42011325  0.85389067    -0.55300
N398        N  0.93686855  0.39246037  0.93281435    -0.00900
N399        N  0.89924152  0.35295942  0.92093914    -0.56500
N400        N  0.93687250  0.43194351  0.89332559    -0.02800
N401        N  0.89924828  0.42006747  0.85381860    -0.55500
N402        N  0.56580905  0.39248920  0.93286129    -0.00500
N403        N  0.60345394  0.35299801  0.92100242    -0.56600
Mn404      Mn  0.50131603  0.39110635  0.50001013     1.18400
C405        C  0.62710989  0.37100072  0.87189449     1.01700
C406        C  0.87561055  0.37094905  0.87181345     1.02300
N407        N  0.56571132  0.06631688  0.60670059    -0.02800
N408        N  0.60333554  0.07819295  0.64620756    -0.59100
N409        N  0.93677472  0.10577114  0.56716468    -0.01600
N410        N  0.89912990  0.14526231  0.57902362    -0.59800
N411        N  0.93676923  0.06628487  0.60664975    -0.02300
N412        N  0.89912001  0.07814709  0.64613535    -0.59400
N413        N  0.56571525  0.10580002  0.56721182    -0.01200
N414        N  0.60334228  0.14530098  0.57908701    -0.60100
Mn415      Mn  0.00125536  0.99912899  0.60804204     1.10700
C416        C  0.62697325  0.12731137  0.62821270     1.02900
C417        C  0.87547393  0.12725966  0.62813154     1.03000
N418        N  0.93684273  0.06629488  0.89332801    -0.02300
N419        N  0.89921937  0.07816419  0.85381812    -0.57700
N420        N  0.56576121  0.10580425  0.93286169    -0.01600
N421        N  0.60338816  0.14530977  0.92100044    -0.54400
N422        N  0.56578553  0.06631263  0.89337839    -0.03000
N423        N  0.60343234  0.07818189  0.85389436    -0.57300
N424        N  0.93681931  0.10577409  0.93282403    -0.01900
N425        N  0.89917695  0.14526293  0.92095397    -0.54500
Mn426      Mn  0.50132849  0.49913136  0.89198410     1.20200
Mn427      Mn  0.00126781  0.10715420  0.00001602     1.10100
Cl428      Cl  0.50129204  0.99913004  0.50001310    -0.82400
C429        C  0.87555814  0.12727179  0.87182216     0.99900
C430        C  0.62705395  0.12730764  0.87189384     0.99700
C431        C  0.66707004  0.16235404  0.83684744     0.01100
C432        C  0.66711400  0.33594451  0.83684103     0.01100
C433        C  0.66704976  0.33594327  0.66324421     0.01100
C434        C  0.66700722  0.16235013  0.66324841     0.01100
C435        C  0.83553413  0.16231714  0.83678192     0.01100
C436        C  0.83546981  0.16231580  0.66318507     0.01100
C437        C  0.83551389  0.33590628  0.66317869     0.01100
C438        C  0.83557659  0.33591028  0.83677773     0.01100
C439        C  0.84361780  0.34552847  0.77560936    -0.09700
C440        C  0.84359676  0.34552235  0.72434345    -0.11300
C441        C  0.84355905  0.27474112  0.65354583    -0.09700
C442        C  0.84354114  0.22347687  0.65355408    -0.11300
C443        C  0.84357046  0.15268586  0.77561416    -0.09700
C444        C  0.84354925  0.15269334  0.72434837    -0.11300
C445        C  0.84362958  0.27474482  0.84639749    -0.09700
C446        C  0.84361356  0.22348047  0.84639672    -0.11300
C447        C  0.77664204  0.14903489  0.64991261    -0.09700
C448        C  0.72582145  0.14904579  0.64993448    -0.11300
C449        C  0.65895425  0.22351560  0.65362865    -0.09700
C450        C  0.65897031  0.27477994  0.65362943    -0.11300
C451        C  0.72586904  0.34921932  0.64992822    -0.09700
C452        C  0.77668993  0.34921182  0.64990818    -0.11300
C453        C  0.65901341  0.34557455  0.72441197    -0.09700
C454        C  0.65903459  0.34556703  0.77567774    -0.12000
C455        C  0.77676236  0.34921455  0.85009168    -0.09700
C456        C  0.72594177  0.34922532  0.85011353    -0.11300
C457        C  0.65896601  0.15273194  0.72441678    -0.09700
C458        C  0.65898711  0.15273800  0.77568269    -0.11300
C459        C  0.72589399  0.14904853  0.85011796    -0.09700
C460        C  0.77671487  0.14904109  0.85009793    -0.11300
C461        C  0.65902482  0.22351921  0.84648030    -0.09700
C462        C  0.65904263  0.27478345  0.84647201    -0.11300
N463        N  0.93679828  0.93194791  0.10664781    -0.02600
N464        N  0.89915141  0.92007855  0.14613175    -0.54700
N465        N  0.56576472  0.89248644  0.06720196    -0.02300
N466        N  0.60340697  0.85299760  0.07907203    -0.56800
N467        N  0.56574125  0.93196566  0.10669808    -0.01900
N468        N  0.60336458  0.92009627  0.14620792    -0.54700
N469        N  0.93682268  0.89245602  0.06716454    -0.01500
N470        N  0.89919591  0.85295060  0.07902580    -0.57200
C471        C  0.87552996  0.87095270  0.12813242     0.99600
C472        C  0.62702576  0.87098863  0.12820389     0.99400
N473        N  0.56581441  0.93197535  0.39337641    -0.02800
N474        N  0.60346389  0.92011321  0.35389072    -0.55300
N475        N  0.93686843  0.89246033  0.43281441    -0.00900
N476        N  0.89924144  0.85295928  0.42093913    -0.56500
N477        N  0.93687231  0.93194343  0.39332567    -0.02800
N478        N  0.89924812  0.92006742  0.35381867    -0.55500
N479        N  0.56580898  0.89248916  0.43286127    -0.00500
N480        N  0.60345388  0.85299797  0.42100250    -0.56600
Mn481      Mn  0.50131619  0.89110623  0.00001016     1.18400
C482        C  0.62710986  0.87100075  0.37189456     1.01700
C483        C  0.87561046  0.87094890  0.37181350     1.02300
N484        N  0.56571127  0.56631698  0.10670062    -0.02800
N485        N  0.60333563  0.57819301  0.14620759    -0.59100
N486        N  0.93677475  0.60577126  0.06716469    -0.01600
N487        N  0.89912987  0.64526238  0.07902357    -0.59800
N488        N  0.93676932  0.56628493  0.10664952    -0.02300
N489        N  0.89911989  0.57814703  0.14613520    -0.59400
N490        N  0.56571524  0.60580011  0.06721192    -0.01200
N491        N  0.60334221  0.64530113  0.07908710    -0.60100
Mn492      Mn  0.00125530  0.49912907  0.10804207     1.10700
C493        C  0.62697324  0.62731145  0.12821274     1.02900
C494        C  0.87547387  0.62725951  0.12813147     1.03000
N495        N  0.93684271  0.56629490  0.39332803    -0.02300
N496        N  0.89921934  0.57816428  0.35381801    -0.57700
N497        N  0.56576116  0.60580425  0.43286173    -0.01600
N498        N  0.60338813  0.64530970  0.42100051    -0.54400
N499        N  0.56578554  0.56631256  0.39337839    -0.03000
N500        N  0.60343229  0.57818185  0.35389442    -0.57300
N501        N  0.93681924  0.60577393  0.43282402    -0.01900
N502        N  0.89917698  0.64526297  0.42095397    -0.54500
Mn503      Mn  0.50132841  0.99913121  0.39198413     1.20200
Mn504      Mn  0.00126771  0.60715409  0.50001601     1.10100
Cl505      Cl  0.50129190  0.49913017  0.00001313    -0.82400
C506        C  0.87555820  0.62727185  0.37182217     0.99900
C507        C  0.62705393  0.62730757  0.37189387     0.99700
C508        C  0.66707001  0.66235393  0.33684745     0.01100
C509        C  0.66711396  0.83594447  0.33684103     0.01100
C510        C  0.66704971  0.83594329  0.16324419     0.01100
C511        C  0.66700726  0.66235022  0.16324846     0.01100
C512        C  0.83553412  0.66231717  0.33678196     0.01100
C513        C  0.83546982  0.66231570  0.16318512     0.01100
C514        C  0.83551379  0.83590629  0.16317869     0.01100
C515        C  0.83557649  0.83591018  0.33677776     0.01100
C516        C  0.84361768  0.84552830  0.27560939    -0.09700
C517        C  0.84359659  0.84552236  0.22434347    -0.11300
C518        C  0.84355894  0.77474108  0.15354589    -0.09700
C519        C  0.84354112  0.72347677  0.15355419    -0.11300
C520        C  0.84357057  0.65268589  0.27561422    -0.09700
C521        C  0.84354931  0.65269312  0.22434843    -0.11300
C522        C  0.84362948  0.77474474  0.34639757    -0.09700
C523        C  0.84361350  0.72348048  0.34639681    -0.11300
C524        C  0.77664207  0.64903487  0.14991268    -0.09700
C525        C  0.72582146  0.64904585  0.14993456    -0.11300
C526        C  0.65895436  0.72351567  0.15362869    -0.09700
C527        C  0.65897029  0.77478000  0.15362938    -0.11300
C528        C  0.72586897  0.84921938  0.14992820    -0.09700
C529        C  0.77668986  0.84921191  0.14990803    -0.11300
C530        C  0.65901326  0.84557446  0.22441196    -0.09700
C531        C  0.65903443  0.84556701  0.27567775    -0.12000
C532        C  0.77676228  0.84921441  0.35009166    -0.09700
C533        C  0.72594170  0.84922537  0.35011338    -0.11300
C534        C  0.65896594  0.65273197  0.22441682    -0.09700
C535        C  0.65898703  0.65273779  0.27568271    -0.11300
C536        C  0.72589396  0.64904839  0.35011798    -0.09700
C537        C  0.77671489  0.64904107  0.35009794    -0.11300
C538        C  0.65902481  0.72351911  0.34648015    -0.09700
C539        C  0.65904273  0.77478342  0.34647199    -0.11300
N540        N  0.93679844  0.93194774  0.60664782    -0.02600
N541        N  0.89915157  0.92007844  0.64613176    -0.54700
N542        N  0.56576461  0.89248641  0.56720200    -0.02300
N543        N  0.60340703  0.85299758  0.57907211    -0.56800
N544        N  0.56574116  0.93196552  0.60669812    -0.01900
N545        N  0.60336445  0.92009628  0.64620800    -0.54700
N546        N  0.93682272  0.89245599  0.56716450    -0.01500
N547        N  0.89919587  0.85295060  0.57902568    -0.57200
C548        C  0.87552995  0.87095274  0.62813233     0.99600
C549        C  0.62702577  0.87098866  0.62820393     0.99400
N550        N  0.56581453  0.93197545  0.89337637    -0.02800
N551        N  0.60346382  0.92011327  0.85389064    -0.55300
N552        N  0.93686863  0.89246017  0.93281428    -0.00900
N553        N  0.89924159  0.85295921  0.92093906    -0.56500
N554        N  0.93687249  0.93194337  0.89332563    -0.02800
N555        N  0.89924811  0.92006747  0.85381871    -0.55500
N556        N  0.56580914  0.89248926  0.93286133    -0.00500
N557        N  0.60345403  0.85299812  0.92100248    -0.56600
Mn558      Mn  0.50131605  0.89110622  0.50001013     1.18400
C559        C  0.62710992  0.87100083  0.87189448     1.01700
C560        C  0.87561051  0.87094894  0.87181350     1.02300
N561        N  0.56571136  0.56631701  0.60670058    -0.02800
N562        N  0.60333560  0.57819294  0.64620749    -0.59100
N563        N  0.93677474  0.60577107  0.56716475    -0.01600
N564        N  0.89912983  0.64526228  0.57902358    -0.59800
N565        N  0.93676929  0.56628492  0.60664971    -0.02300
N566        N  0.89911989  0.57814707  0.64613537    -0.59400
N567        N  0.56571526  0.60580018  0.56721182    -0.01200
N568        N  0.60334232  0.64530110  0.57908707    -0.60100
Mn569      Mn  0.00125535  0.49912911  0.60804204     1.10700
C570        C  0.62697334  0.62731145  0.62821268     1.02900
C571        C  0.87547388  0.62725954  0.62813148     1.03000
N572        N  0.93684282  0.56629492  0.89332799    -0.02300
N573        N  0.89921945  0.57816423  0.85381803    -0.57700
N574        N  0.56576119  0.60580431  0.93286167    -0.01600
N575        N  0.60338802  0.64530972  0.92100042    -0.54400
N576        N  0.56578550  0.56631255  0.89337835    -0.03000
N577        N  0.60343238  0.57818179  0.85389444    -0.57300
N578        N  0.93681933  0.60577397  0.93282403    -0.01900
N579        N  0.89917691  0.64526283  0.92095404    -0.54500
Mn580      Mn  0.50132851  0.99913128  0.89198411     1.20200
Mn581      Mn  0.00126782  0.60715408  0.00001602     1.10100
Cl582      Cl  0.50129202  0.49913025  0.50001309    -0.82400
C583        C  0.87555816  0.62727174  0.87182219     0.99900
C584        C  0.62705398  0.62730757  0.87189383     0.99700
C585        C  0.66707000  0.66235400  0.83684746     0.01100
C586        C  0.66711399  0.83594457  0.83684103     0.01100
C587        C  0.66704975  0.83594328  0.66324421     0.01100
C588        C  0.66700728  0.66235015  0.66324843     0.01100
C589        C  0.83553415  0.66231713  0.83678193     0.01100
C590        C  0.83546984  0.66231580  0.66318506     0.01100
C591        C  0.83551390  0.83590633  0.66317868     0.01100
C592        C  0.83557659  0.83591021  0.83677772     0.01100
C593        C  0.84361784  0.84552839  0.77560936    -0.09700
C594        C  0.84359681  0.84552244  0.72434344    -0.11300
C595        C  0.84355908  0.77474116  0.65354586    -0.09700
C596        C  0.84354122  0.72347685  0.65355411    -0.11300
C597        C  0.84357051  0.65268588  0.77561416    -0.09700
C598        C  0.84354929  0.65269324  0.72434836    -0.11300
C599        C  0.84362962  0.77474474  0.84639750    -0.09700
C600        C  0.84361364  0.72348047  0.84639675    -0.11300
C601        C  0.77664208  0.64903499  0.64991260    -0.09700
C602        C  0.72582149  0.64904590  0.64993447    -0.11300
C603        C  0.65895427  0.72351564  0.65362865    -0.09700
C604        C  0.65897026  0.77477991  0.65362939    -0.11300
C605        C  0.72586905  0.84921925  0.64992823    -0.09700
C606        C  0.77668992  0.84921189  0.64990819    -0.11300
C607        C  0.65901339  0.84557451  0.72441196    -0.09700
C608        C  0.65903458  0.84556712  0.77567774    -0.12000
C609        C  0.77676235  0.84921446  0.85009166    -0.09700
C610        C  0.72594177  0.84922540  0.85011353    -0.11300
C611        C  0.65896606  0.65273197  0.72441679    -0.09700
C612        C  0.65898710  0.65273792  0.77568270    -0.11300
C613        C  0.72589398  0.64904847  0.85011795    -0.09700
C614        C  0.77671486  0.64904114  0.85009791    -0.11300
C615        C  0.65902481  0.72351919  0.84648030    -0.09700
C616        C  0.65904263  0.77478351  0.84647201    -0.11300
loop_ 
_geom_bond_atom_site_label_1 
_geom_bond_atom_site_label_2 
_geom_bond_distance 
_geom_bond_site_symmetry_2 
_ccdc_geom_bond_type 
N1            N2   1.320       .  A
N1            N7   1.316       .  A
N1         Mn184   2.202       .  S
N2            C9   1.354       .  A
N3            N5   1.316       .  A
N3            N4   1.320       .  A
N3          Mn19   2.202       .  S
N4           C10   1.354       .  A
N5            N6   1.320       .  A
N5         Mn492   2.202       .  S
N6           C10   1.354       .  A
N7            N8   1.320       .  A
N7         Mn327   2.202       .  S
N8            C9   1.354       .  A
C9           C52   1.506       .  S
C10          C48   1.505       .  S
N11          N17   1.316       .  A
N11          N12   1.320       .  A
N11         Mn41   2.202       .  S
N12          C20   1.354       .  A
N13          N14   1.320       .  A
N13          N15   1.316       .  A
N13        Mn404   2.202       .  S
N14          C21   1.354       .  A
N15          N16   1.320       .  A
N15        Mn349   2.202       .  S
N16          C21   1.354       .  A
N17          N18   1.320       .  A
N17         Mn96   2.202       .  S
N18          C20   1.354       .  A
Mn19        N315   2.202   1_455  S
Mn19        N398   2.202   1_454  S
Mn19         N94   2.202   1_554  S
Mn19       Cl197   2.545       .  S
C20          C47   1.505       .  S
C21          C53   1.505       .  S
N22          N23   1.320       .  A
N22          N28   1.316       .  A
N22        Mn338   2.202   1_545  S
N23          C31   1.354       .  A
N24          N26   1.316       .  A
N24          N25   1.320       .  A
N24        Mn119   2.202       .  S
N25          C32   1.354       .  A
N26          N27   1.320       .  A
N26         Mn30   2.202   1_545  S
N27          C32   1.354       .  A
N28          N29   1.320       .  A
N28        Mn427   2.202       .  S
N29          C31   1.354       .  A
Mn30        N155   2.202       .  S
Mn30        N467   2.202       .  S
Mn30        N330   2.202   1_565  S
Mn30       Cl351   2.545       .  S
C31          C49   1.505       .  S
C32          C51   1.505       .  S
N33          N34   1.320       .  A
N33          N39   1.316       .  A
N33        Mn503   2.202   1_545  S
N34          C44   1.354       .  A
N35          N36   1.320       .  A
N35          N37   1.316       .  A
N35        Mn350   2.202       .  S
N36          C45   1.354       .  A
N37          N38   1.320       .  A
N37        Mn195   2.202   1_545  S
N38          C45   1.354       .  A
N39          N40   1.320       .  A
N39         Mn42   2.202       .  S
N40          C44   1.354       .  A
Mn41        N323   2.202   1_455  S
Mn41        N495   2.202   1_455  S
Mn41        N191   2.202       .  S
Mn41       Cl274   2.545       .  S
Mn42        N101   2.202       .  S
Mn42        N413   2.202       .  S
Mn42        N343   2.202       .  S
Mn42       Cl428   2.545   1_545  S
Cl43       Mn173   2.545       .  S
Cl43       Mn338   2.545       .  S
Cl43       Mn272   2.545   1_554  S
Cl43       Mn427   2.545   1_565  S
C44          C50   1.505       .  S
C45          C46   1.506       .  S
C46          C73   1.471       .  S
C46          C74   1.465       .  S
C46          C76   1.471       .  S
C47          C69   1.471       .  S
C47          C71   1.465       .  S
C47          C77   1.471       .  S
C48          C65   1.471       .  S
C48          C66   1.465       .  S
C48          C68   1.471       .  S
C49          C63   1.465       .  S
C49          C64   1.471       .  S
C49          C72   1.471       .  S
C50          C58   1.471       .  S
C50          C61   1.471       .  S
C50          C75   1.465       .  S
C51          C57   1.471       .  S
C51          C59   1.471       .  S
C51          C62   1.465       .  S
C52          C55   1.471       .  S
C52          C56   1.471       .  S
C52          C67   1.465       .  S
C53          C54   1.471       .  S
C53          C60   1.471       .  S
C53          C70   1.465       .  S
C54          C55   1.208       .  T
C56          C57   1.208       .  T
C58          C59   1.208       .  T
C60          C61   1.208       .  T
C62          C63   1.207       .  T
C64          C65   1.208       .  T
C66          C67   1.207       .  T
C68          C69   1.208       .  T
C70          C71   1.207       .  T
C72          C73   1.208       .  T
C74          C75   1.207       .  T
C76          C77   1.208       .  T
N78          N79   1.320       .  A
N78          N84   1.316       .  A
N78        Mn261   2.202       .  S
N79          C86   1.354       .  A
N80          N82   1.316       .  A
N80          N81   1.320       .  A
N80         Mn96   2.202       .  S
N81          C87   1.354       .  A
N82          N83   1.320       .  A
N82        Mn569   2.202       .  S
N83          C87   1.354       .  A
N84          N85   1.320       .  A
N84        Mn404   2.202       .  S
N85          C86   1.354       .  A
C86         C129   1.506       .  S
C87         C125   1.505       .  S
N88          N94   1.316       .  A
N88          N89   1.320       .  A
N88        Mn118   2.202       .  S
N89          C97   1.354       .  A
N90          N91   1.320       .  A
N90          N92   1.316       .  A
N90        Mn327   2.202   1_556  S
N91          C98   1.354       .  A
N92          N93   1.320       .  A
N92        Mn426   2.202       .  S
N93          C98   1.354       .  A
N94          N95   1.320       .  A
N95          C97   1.354       .  A
Mn96        N392   2.202   1_455  S
Mn96        N321   2.202   1_455  S
Mn96       Cl274   2.545       .  S
C97         C124   1.505       .  S
C98         C130   1.505       .  S
N99         N100   1.320       .  A
N99         N105   1.316       .  A
N99        Mn415   2.202   1_545  S
N100        C108   1.354       .  A
N101        N103   1.316       .  A
N101        N102   1.320       .  A
N102        C109   1.354       .  A
N103        N104   1.320       .  A
N103       Mn107   2.202   1_545  S
N104        C109   1.354       .  A
N105        N106   1.320       .  A
N105       Mn350   2.202       .  S
N106        C108   1.354       .  A
Mn107       N232   2.202       .  S
Mn107       N544   2.202       .  S
Mn107       N407   2.202   1_565  S
Mn107      Cl428   2.545       .  S
C108        C126   1.505       .  S
C109        C128   1.505       .  S
N110        N111   1.320       .  A
N110        N116   1.316       .  A
N110       Mn580   2.202   1_545  S
N111        C121   1.354       .  A
N112        N113   1.320       .  A
N112        N114   1.316       .  A
N112       Mn427   2.202   1_556  S
N113        C122   1.354       .  A
N114        N115   1.320       .  A
N114       Mn272   2.202   1_545  S
N115        C122   1.354       .  A
N116        N117   1.320       .  A
N116       Mn119   2.202   1_556  S
N117        C121   1.354       .  A
Mn118       N400   2.202   1_455  S
Mn118       N572   2.202   1_455  S
Mn118       N268   2.202       .  S
Mn118      Cl197   2.545   1_556  S
Mn119       N336   2.202       .  S
Mn119       N420   2.202   1_554  S
Mn119      Cl351   2.545   1_545  S
Cl120      Mn250   2.545       .  S
Cl120      Mn415   2.545       .  S
Cl120      Mn195   2.545       .  S
Cl120      Mn350   2.545   1_565  S
C121        C127   1.505       .  S
C122        C123   1.506       .  S
C123        C150   1.471       .  S
C123        C151   1.465       .  S
C123        C153   1.471       .  S
C124        C146   1.471       .  S
C124        C148   1.465       .  S
C124        C154   1.471       .  S
C125        C142   1.471       .  S
C125        C143   1.465       .  S
C125        C145   1.471       .  S
C126        C140   1.465       .  S
C126        C141   1.471       .  S
C126        C149   1.471       .  S
C127        C135   1.471       .  S
C127        C138   1.471       .  S
C127        C152   1.465       .  S
C128        C134   1.471       .  S
C128        C136   1.471       .  S
C128        C139   1.465       .  S
C129        C132   1.471       .  S
C129        C133   1.471       .  S
C129        C144   1.465       .  S
C130        C131   1.471       .  S
C130        C137   1.471       .  S
C130        C147   1.465       .  S
C131        C132   1.208       .  T
C133        C134   1.208       .  T
C135        C136   1.208       .  T
C137        C138   1.208       .  T
C139        C140   1.207       .  T
C141        C142   1.208       .  T
C143        C144   1.207       .  T
C145        C146   1.208       .  T
C147        C148   1.207       .  T
C149        C150   1.208       .  T
C151        C152   1.207       .  T
C153        C154   1.208       .  T
N155        N156   1.320       .  A
N155        N161   1.316       .  A
N156        C163   1.354       .  A
N157        N159   1.316       .  A
N157        N158   1.320       .  A
N157       Mn173   2.202       .  S
N158        C164   1.354       .  A
N159        N160   1.320       .  A
N159       Mn338   2.202       .  S
N160        C164   1.354       .  A
N161        N162   1.320       .  A
N161       Mn481   2.202       .  S
N162        C163   1.354       .  A
C163        C206   1.506       .  S
C164        C202   1.505       .  S
N165        N171   1.316       .  A
N165        N166   1.320       .  A
N165       Mn195   2.202       .  S
N166        C174   1.354       .  A
N167        N168   1.320       .  A
N167        N169   1.316       .  A
N167       Mn558   2.202       .  S
N168        C175   1.354       .  A
N169        N170   1.320       .  A
N169       Mn503   2.202       .  S
N170        C175   1.354       .  A
N171        N172   1.320       .  A
N171       Mn250   2.202       .  S
N172        C174   1.354       .  A
Mn173       N469   2.202   1_455  S
Mn173       N552   2.202   1_454  S
Mn173       N248   2.202   1_554  S
C174        C201   1.505       .  S
C175        C207   1.505       .  S
N176        N177   1.320       .  A
N176        N182   1.316       .  A
N176       Mn492   2.202       .  S
N177        C185   1.354       .  A
N178        N180   1.316       .  A
N178        N179   1.320       .  A
N178       Mn273   2.202       .  S
N179        C186   1.354       .  A
N180        N181   1.320       .  A
N180       Mn184   2.202       .  S
N181        C186   1.354       .  A
N182        N183   1.320       .  A
N182       Mn581   2.202       .  S
N183        C185   1.354       .  A
Mn184       N313   2.202       .  S
Mn184       N484   2.202       .  S
Mn184      Cl505   2.545       .  S
C185        C203   1.505       .  S
C186        C205   1.505       .  S
N187        N188   1.320       .  A
N187        N193   1.316       .  A
N187       Mn349   2.202       .  S
N188        C198   1.354       .  A
N189        N190   1.320       .  A
N189        N191   1.316       .  A
N189       Mn504   2.202       .  S
N190        C199   1.354       .  A
N191        N192   1.320       .  A
N192        C199   1.354       .  A
N193        N194   1.320       .  A
N193       Mn196   2.202       .  S
N194        C198   1.354       .  A
Mn195       N477   2.202   1_455  S
Mn195       N341   2.202   1_465  S
Mn196       N255   2.202       .  S
Mn196       N567   2.202       .  S
Mn196       N497   2.202       .  S
Mn196      Cl582   2.545       .  S
Cl197      Mn492   2.545       .  S
Cl197      Mn581   2.545       .  S
C198        C204   1.505       .  S
C199        C200   1.506       .  S
C200        C227   1.471       .  S
C200        C228   1.465       .  S
C200        C230   1.471       .  S
C201        C223   1.471       .  S
C201        C225   1.465       .  S
C201        C231   1.471       .  S
C202        C219   1.471       .  S
C202        C220   1.465       .  S
C202        C222   1.471       .  S
C203        C217   1.465       .  S
C203        C218   1.471       .  S
C203        C226   1.471       .  S
C204        C212   1.471       .  S
C204        C215   1.471       .  S
C204        C229   1.465       .  S
C205        C211   1.471       .  S
C205        C213   1.471       .  S
C205        C216   1.465       .  S
C206        C209   1.471       .  S
C206        C210   1.471       .  S
C206        C221   1.465       .  S
C207        C208   1.471       .  S
C207        C214   1.471       .  S
C207        C224   1.465       .  S
C208        C209   1.208       .  T
C210        C211   1.208       .  T
C212        C213   1.208       .  T
C214        C215   1.208       .  T
C216        C217   1.207       .  T
C218        C219   1.208       .  T
C220        C221   1.207       .  T
C222        C223   1.208       .  T
C224        C225   1.207       .  T
C226        C227   1.208       .  T
C228        C229   1.207       .  T
C230        C231   1.208       .  T
N232        N233   1.320       .  A
N232        N238   1.316       .  A
N233        C240   1.354       .  A
N234        N236   1.316       .  A
N234        N235   1.320       .  A
N234       Mn250   2.202       .  S
N235        C241   1.354       .  A
N236        N237   1.320       .  A
N236       Mn415   2.202       .  S
N237        C241   1.354       .  A
N238        N239   1.320       .  A
N238       Mn558   2.202       .  S
N239        C240   1.354       .  A
C240        C283   1.506       .  S
C241        C279   1.505       .  S
N242        N248   1.316       .  A
N242        N243   1.320       .  A
N242       Mn272   2.202       .  S
N243        C251   1.354       .  A
N244        N245   1.320       .  A
N244        N246   1.316       .  A
N244       Mn481   2.202   1_556  S
N245        C252   1.354       .  A
N246        N247   1.320       .  A
N246       Mn580   2.202       .  S
N247        C252   1.354       .  A
N248        N249   1.320       .  A
N249        C251   1.354       .  A
Mn250       N546   2.202   1_455  S
Mn250       N475   2.202   1_455  S
C251        C278   1.505       .  S
C252        C284   1.505       .  S
N253        N254   1.320       .  A
N253        N259   1.316       .  A
N253       Mn569   2.202       .  S
N254        C262   1.354       .  A
N255        N257   1.316       .  A
N255        N256   1.320       .  A
N256        C263   1.354       .  A
N257        N258   1.320       .  A
N257       Mn261   2.202       .  S
N258        C263   1.354       .  A
N259        N260   1.320       .  A
N259       Mn504   2.202       .  S
N260        C262   1.354       .  A
Mn261       N390   2.202       .  S
Mn261       N561   2.202       .  S
Mn261      Cl582   2.545       .  S
C262        C280   1.505       .  S
C263        C282   1.505       .  S
N264        N265   1.320       .  A
N264        N270   1.316       .  A
N264       Mn426   2.202       .  S
N265        C275   1.354       .  A
N266        N267   1.320       .  A
N266        N268   1.316       .  A
N266       Mn581   2.202   1_556  S
N267        C276   1.354       .  A
N268        N269   1.320       .  A
N269        C276   1.354       .  A
N270        N271   1.320       .  A
N270       Mn273   2.202   1_556  S
N271        C275   1.354       .  A
Mn272       N554   2.202   1_455  S
Mn272       N418   2.202   1_465  S
Mn273       N490   2.202       .  S
Mn273       N574   2.202   1_554  S
Mn273      Cl505   2.545       .  S
Cl274      Mn569   2.545       .  S
Cl274      Mn504   2.545       .  S
C275        C281   1.505       .  S
C276        C277   1.506       .  S
C277        C304   1.471       .  S
C277        C305   1.465       .  S
C277        C307   1.471       .  S
C278        C300   1.471       .  S
C278        C302   1.465       .  S
C278        C308   1.471       .  S
C279        C296   1.471       .  S
C279        C297   1.465       .  S
C279        C299   1.471       .  S
C280        C294   1.465       .  S
C280        C295   1.471       .  S
C280        C303   1.471       .  S
C281        C289   1.471       .  S
C281        C292   1.471       .  S
C281        C306   1.465       .  S
C282        C288   1.471       .  S
C282        C290   1.471       .  S
C282        C293   1.465       .  S
C283        C286   1.471       .  S
C283        C287   1.471       .  S
C283        C298   1.465       .  S
C284        C285   1.471       .  S
C284        C291   1.471       .  S
C284        C301   1.465       .  S
C285        C286   1.208       .  T
C287        C288   1.208       .  T
C289        C290   1.208       .  T
C291        C292   1.208       .  T
C293        C294   1.207       .  T
C295        C296   1.208       .  T
C297        C298   1.207       .  T
C299        C300   1.208       .  T
C301        C302   1.207       .  T
C303        C304   1.208       .  T
C305        C306   1.207       .  T
C307        C308   1.208       .  T
N309        N310   1.320       .  A
N309        N315   1.316       .  A
N309       Mn492   2.202   1_655  S
N310        C317   1.354       .  A
N311        N313   1.316       .  A
N311        N312   1.320       .  A
N311       Mn327   2.202       .  S
N312        C318   1.354       .  A
N313        N314   1.320       .  A
N314        C318   1.354       .  A
N315        N316   1.320       .  A
N316        C317   1.354       .  A
C317        C360   1.506       .  S
C318        C356   1.505       .  S
N319        N325   1.316       .  A
N319        N320   1.320       .  A
N319       Mn349   2.202       .  S
N320        C328   1.354       .  A
N321        N322   1.320       .  A
N321        N323   1.316       .  A
N322        C329   1.354       .  A
N323        N324   1.320       .  A
N324        C329   1.354       .  A
N325        N326   1.320       .  A
N325       Mn404   2.202       .  S
N326        C328   1.354       .  A
Mn327       N402   2.202   1_554  S
Mn327      Cl505   2.545       .  S
C328        C355   1.505       .  S
C329        C361   1.505       .  S
N330        N331   1.320       .  A
N330        N336   1.316       .  A
N331        C339   1.354       .  A
N332        N334   1.316       .  A
N332        N333   1.320       .  A
N332       Mn427   2.202   1_655  S
N333        C340   1.354       .  A
N334        N335   1.320       .  A
N334       Mn338   2.202   1_645  S
N335        C340   1.354       .  A
N336        N337   1.320       .  A
N337        C339   1.354       .  A
Mn338       N463   2.202   1_455  S
C339        C357   1.505       .  S
C340        C359   1.505       .  S
N341        N342   1.320       .  A
N341        N347   1.316       .  A
N342        C352   1.354       .  A
N343        N344   1.320       .  A
N343        N345   1.316       .  A
N344        C353   1.354       .  A
N345        N346   1.320       .  A
N345       Mn503   2.202   1_545  S
N346        C353   1.354       .  A
N347        N348   1.320       .  A
N347       Mn350   2.202   1_655  S
N348        C352   1.354       .  A
Mn349       N499   2.202       .  S
Mn349      Cl582   2.545       .  S
Mn350       N409   2.202   1_455  S
Cl351      Mn481   2.545       .  S
Cl351      Mn580   2.545   1_554  S
C352        C358   1.505       .  S
C353        C354   1.506       .  S
C354        C381   1.471       .  S
C354        C382   1.465       .  S
C354        C384   1.471       .  S
C355        C377   1.471       .  S
C355        C379   1.465       .  S
C355        C385   1.471       .  S
C356        C373   1.471       .  S
C356        C374   1.465       .  S
C356        C376   1.471       .  S
C357        C371   1.465       .  S
C357        C372   1.471       .  S
C357        C380   1.471       .  S
C358        C366   1.471       .  S
C358        C369   1.471       .  S
C358        C383   1.465       .  S
C359        C365   1.471       .  S
C359        C367   1.471       .  S
C359        C370   1.465       .  S
C360        C363   1.471       .  S
C360        C364   1.471       .  S
C360        C375   1.465       .  S
C361        C362   1.471       .  S
C361        C368   1.471       .  S
C361        C378   1.465       .  S
C362        C363   1.208       .  T
C364        C365   1.208       .  T
C366        C367   1.208       .  T
C368        C369   1.208       .  T
C370        C371   1.207       .  T
C372        C373   1.208       .  T
C374        C375   1.207       .  T
C376        C377   1.208       .  T
C378        C379   1.207       .  T
C380        C381   1.208       .  T
C382        C383   1.207       .  T
C384        C385   1.208       .  T
N386        N387   1.320       .  A
N386        N392   1.316       .  A
N386       Mn569   2.202   1_655  S
N387        C394   1.354       .  A
N388        N390   1.316       .  A
N388        N389   1.320       .  A
N388       Mn404   2.202       .  S
N389        C395   1.354       .  A
N390        N391   1.320       .  A
N391        C395   1.354       .  A
N392        N393   1.320       .  A
N393        C394   1.354       .  A
C394        C437   1.506       .  S
C395        C433   1.505       .  S
N396        N402   1.316       .  A
N396        N397   1.320       .  A
N396       Mn426   2.202       .  S
N397        C405   1.354       .  A
N398        N399   1.320       .  A
N398        N400   1.316       .  A
N399        C406   1.354       .  A
N400        N401   1.320       .  A
N401        C406   1.354       .  A
N402        N403   1.320       .  A
N403        C405   1.354       .  A
Mn404      Cl582   2.545       .  S
C405        C432   1.505       .  S
C406        C438   1.505       .  S
N407        N408   1.320       .  A
N407        N413   1.316       .  A
N408        C416   1.354       .  A
N409        N411   1.316       .  A
N409        N410   1.320       .  A
N410        C417   1.354       .  A
N411        N412   1.320       .  A
N411       Mn415   2.202   1_645  S
N412        C417   1.354       .  A
N413        N414   1.320       .  A
N414        C416   1.354       .  A
Mn415       N540   2.202   1_455  S
C416        C434   1.505       .  S
C417        C436   1.505       .  S
N418        N419   1.320       .  A
N418        N424   1.316       .  A
N419        C429   1.354       .  A
N420        N421   1.320       .  A
N420        N422   1.316       .  A
N421        C430   1.354       .  A
N422        N423   1.320       .  A
N422       Mn580   2.202   1_545  S
N423        C430   1.354       .  A
N424        N425   1.320       .  A
N424       Mn427   2.202   1_656  S
N425        C429   1.354       .  A
Mn426       N576   2.202       .  S
Mn426      Cl505   2.545   1_556  S
Cl428      Mn558   2.545       .  S
Cl428      Mn503   2.545       .  S
C429        C435   1.505       .  S
C430        C431   1.506       .  S
C431        C458   1.471       .  S
C431        C459   1.465       .  S
C431        C461   1.471       .  S
C432        C454   1.471       .  S
C432        C456   1.465       .  S
C432        C462   1.471       .  S
C433        C450   1.471       .  S
C433        C451   1.465       .  S
C433        C453   1.471       .  S
C434        C448   1.465       .  S
C434        C449   1.471       .  S
C434        C457   1.471       .  S
C435        C443   1.471       .  S
C435        C446   1.471       .  S
C435        C460   1.465       .  S
C436        C442   1.471       .  S
C436        C444   1.471       .  S
C436        C447   1.465       .  S
C437        C440   1.471       .  S
C437        C441   1.471       .  S
C437        C452   1.465       .  S
C438        C439   1.471       .  S
C438        C445   1.471       .  S
C438        C455   1.465       .  S
C439        C440   1.208       .  T
C441        C442   1.208       .  T
C443        C444   1.208       .  T
C445        C446   1.208       .  T
C447        C448   1.207       .  T
C449        C450   1.208       .  T
C451        C452   1.207       .  T
C453        C454   1.208       .  T
C455        C456   1.207       .  T
C457        C458   1.208       .  T
C459        C460   1.207       .  T
C461        C462   1.208       .  T
N463        N464   1.320       .  A
N463        N469   1.316       .  A
N464        C471   1.354       .  A
N465        N467   1.316       .  A
N465        N466   1.320       .  A
N465       Mn481   2.202       .  S
N466        C472   1.354       .  A
N467        N468   1.320       .  A
N468        C472   1.354       .  A
N469        N470   1.320       .  A
N470        C471   1.354       .  A
C471        C514   1.506       .  S
C472        C510   1.505       .  S
N473        N479   1.316       .  A
N473        N474   1.320       .  A
N473       Mn503   2.202       .  S
N474        C482   1.354       .  A
N475        N476   1.320       .  A
N475        N477   1.316       .  A
N476        C483   1.354       .  A
N477        N478   1.320       .  A
N478        C483   1.354       .  A
N479        N480   1.320       .  A
N479       Mn558   2.202       .  S
N480        C482   1.354       .  A
Mn481       N556   2.202   1_554  S
C482        C509   1.505       .  S
C483        C515   1.505       .  S
N484        N485   1.320       .  A
N484        N490   1.316       .  A
N485        C493   1.354       .  A
N486        N488   1.316       .  A
N486        N487   1.320       .  A
N486       Mn581   2.202   1_655  S
N487        C494   1.354       .  A
N488        N489   1.320       .  A
N488       Mn492   2.202   1_655  S
N489        C494   1.354       .  A
N490        N491   1.320       .  A
N491        C493   1.354       .  A
C493        C511   1.505       .  S
C494        C513   1.505       .  S
N495        N496   1.320       .  A
N495        N501   1.316       .  A
N496        C506   1.354       .  A
N497        N498   1.320       .  A
N497        N499   1.316       .  A
N498        C507   1.354       .  A
N499        N500   1.320       .  A
N500        C507   1.354       .  A
N501        N502   1.320       .  A
N501       Mn504   2.202   1_655  S
N502        C506   1.354       .  A
Mn504       N563   2.202   1_455  S
C506        C512   1.505       .  S
C507        C508   1.506       .  S
C508        C535   1.471       .  S
C508        C536   1.465       .  S
C508        C538   1.471       .  S
C509        C531   1.471       .  S
C509        C533   1.465       .  S
C509        C539   1.471       .  S
C510        C527   1.471       .  S
C510        C528   1.465       .  S
C510        C530   1.471       .  S
C511        C525   1.465       .  S
C511        C526   1.471       .  S
C511        C534   1.471       .  S
C512        C520   1.471       .  S
C512        C523   1.471       .  S
C512        C537   1.465       .  S
C513        C519   1.471       .  S
C513        C521   1.471       .  S
C513        C524   1.465       .  S
C514        C517   1.471       .  S
C514        C518   1.471       .  S
C514        C529   1.465       .  S
C515        C516   1.471       .  S
C515        C522   1.471       .  S
C515        C532   1.465       .  S
C516        C517   1.208       .  T
C518        C519   1.208       .  T
C520        C521   1.208       .  T
C522        C523   1.208       .  T
C524        C525   1.207       .  T
C526        C527   1.208       .  T
C528        C529   1.207       .  T
C530        C531   1.208       .  T
C532        C533   1.207       .  T
C534        C535   1.208       .  T
C536        C537   1.207       .  T
C538        C539   1.208       .  T
N540        N541   1.320       .  A
N540        N546   1.316       .  A
N541        C548   1.354       .  A
N542        N544   1.316       .  A
N542        N543   1.320       .  A
N542       Mn558   2.202       .  S
N543        C549   1.354       .  A
N544        N545   1.320       .  A
N545        C549   1.354       .  A
N546        N547   1.320       .  A
N547        C548   1.354       .  A
C548        C591   1.506       .  S
C549        C587   1.505       .  S
N550        N556   1.316       .  A
N550        N551   1.320       .  A
N550       Mn580   2.202       .  S
N551        C559   1.354       .  A
N552        N553   1.320       .  A
N552        N554   1.316       .  A
N553        C560   1.354       .  A
N554        N555   1.320       .  A
N555        C560   1.354       .  A
N556        N557   1.320       .  A
N557        C559   1.354       .  A
C559        C586   1.505       .  S
C560        C592   1.505       .  S
N561        N562   1.320       .  A
N561        N567   1.316       .  A
N562        C570   1.354       .  A
N563        N565   1.316       .  A
N563        N564   1.320       .  A
N564        C571   1.354       .  A
N565        N566   1.320       .  A
N565       Mn569   2.202   1_655  S
N566        C571   1.354       .  A
N567        N568   1.320       .  A
N568        C570   1.354       .  A
C570        C588   1.505       .  S
C571        C590   1.505       .  S
N572        N573   1.320       .  A
N572        N578   1.316       .  A
N573        C583   1.354       .  A
N574        N575   1.320       .  A
N574        N576   1.316       .  A
N575        C584   1.354       .  A
N576        N577   1.320       .  A
N577        C584   1.354       .  A
N578        N579   1.320       .  A
N578       Mn581   2.202   1_656  S
N579        C583   1.354       .  A
C583        C589   1.505       .  S
C584        C585   1.506       .  S
C585        C612   1.471       .  S
C585        C613   1.465       .  S
C585        C615   1.471       .  S
C586        C608   1.471       .  S
C586        C610   1.465       .  S
C586        C616   1.471       .  S
C587        C604   1.471       .  S
C587        C605   1.465       .  S
C587        C607   1.471       .  S
C588        C602   1.465       .  S
C588        C603   1.471       .  S
C588        C611   1.471       .  S
C589        C597   1.471       .  S
C589        C600   1.471       .  S
C589        C614   1.465       .  S
C590        C596   1.471       .  S
C590        C598   1.471       .  S
C590        C601   1.465       .  S
C591        C594   1.471       .  S
C591        C595   1.471       .  S
C591        C606   1.465       .  S
C592        C593   1.471       .  S
C592        C599   1.471       .  S
C592        C609   1.465       .  S
C593        C594   1.208       .  T
C595        C596   1.208       .  T
C597        C598   1.208       .  T
C599        C600   1.208       .  T
C601        C602   1.207       .  T
C603        C604   1.208       .  T
C605        C606   1.207       .  T
C607        C608   1.208       .  T
C609        C610   1.207       .  T
C611        C612   1.208       .  T
C613        C614   1.207       .  T
C615        C616   1.208       .  T
