geometry optimzed in LAMMPS
_audit_creation_date              2020-12-01 
_audit_creation_method            'lammps2cif' 
_symmetry_space_group_name_H-M    'P1' 
_symmetry_Int_Tables_number       1 
_symmetry_cell_setting            triclinic 
loop_ 
_symmetry_equiv_pos_as_xyz 
  x,y,z 
_cell_length_a                    38.61540339 
_cell_length_b                    38.904661464144326 
_cell_length_c                    32.43719958227753 
_cell_angle_alpha                 89.77758470711753 
_cell_angle_beta                  90.40412463462815 
_cell_angle_gamma                 120.19120141766572 
loop_ 
_atom_site_label 
_atom_site_type_symbol 
_atom_site_fract_x 
_atom_site_fract_y 
_atom_site_fract_z 
_atom_site_charge 
O1          O  0.23770982  0.34691296  0.27283063    -0.84600
O2          O  0.16817736  0.28326154  0.29914871    -0.81600
C3          C  0.13150092  0.26148462  0.30689007     0.98900
O4          O  0.10565140  0.26535547  0.28618883    -0.81700
O5          O  0.11325876  0.33896645  0.30136131    -0.84300
C6          C  0.12877637  0.37627335  0.30248303     1.03400
O7          O  0.15500889  0.39743277  0.27631705    -0.77100
O8          O  0.21940451  0.38795892  0.29532168    -0.77300
C9          C  0.24153676  0.37281081  0.29852398     1.03400
O10         O  0.21186418  0.32693946  0.18910736    -0.84600
O11         O  0.14372638  0.25787471  0.21661989    -0.81600
C12         C  0.11324514  0.25262875  0.19671706     0.98900
O13         O  0.10121902  0.27730930  0.19926514    -0.81700
O14         O  0.10473874  0.34960979  0.21371031    -0.84300
C15         C  0.12869299  0.37677544  0.18925599     1.03400
O16         O  0.16594584  0.38944117  0.19109796    -0.77100
O17         O  0.23670752  0.38858601  0.20924836    -0.77200
C18         C  0.23868506  0.36307924  0.18666426     1.03300
Cr19       Cr  0.18812378  0.30601670  0.24416608     1.93700
Cr20       Cr  0.11038651  0.30982058  0.24969372     1.93200
Cr21       Cr  0.19203812  0.38660102  0.24294093     1.39100
O22         O  0.16320658  0.33396854  0.24495656    -1.22300
C23         C  0.49464677  0.00153050  0.01970977    -0.01700
C24         C  0.99877938  0.50039265  0.47241379    -0.01700
O25         O  0.28419777  0.16718668  0.80854138    -0.84600
O26         O  0.35413948  0.23901838  0.79520048    -0.81600
C27         C  0.38058273  0.23889463  0.81837920     0.98900
O28         O  0.39245963  0.21462061  0.81210228    -0.81700
O29         O  0.39150120  0.14732155  0.78529826    -0.84300
C30         C  0.36433401  0.11787839  0.80465898     1.03400
O31         O  0.32790387  0.10600445  0.79829640    -0.77100
O32         O  0.26113332  0.10930691  0.77824896    -0.77300
C33         C  0.25958034  0.13027788  0.80695596     1.03400
O34         O  0.26594263  0.16096555  0.72179486    -0.84600
O35         O  0.34012364  0.22778222  0.70786364    -0.81600
C36         C  0.37778148  0.24875732  0.70512347     0.98900
O37         O  0.40044520  0.24285442  0.72879148    -0.81700
O38         O  0.39406629  0.17319278  0.70142523    -0.84300
C39         C  0.37870482  0.13679843  0.69330088     1.03400
O40         O  0.34918483  0.11146813  0.71395561    -0.77100
O41         O  0.28558182  0.12240905  0.69391682    -0.77200
C42         C  0.26239854  0.13637893  0.69429610     1.03300
Cr43       Cr  0.31302231  0.19670706  0.75803725     1.93700
Cr44       Cr  0.39041044  0.19257155  0.75670366     1.93200
Cr45       Cr  0.30836852  0.11655529  0.74652929     1.39100
O46         O  0.33740596  0.16868597  0.75383703    -1.22300
C47         C  0.99760562  0.49580044  0.96562237    -0.01700
C48         C  0.99775686  0.50031154  0.52716770    -0.01700
C49         C  0.45471937  0.32554340  0.88507910    -0.11100
C50         C  0.42860108  0.33200508  0.90934505     0.11500
C51         C  0.38676934  0.30546457  0.90626420    -0.02900
C52         C  0.37243281  0.27408382  0.87757091    -0.05700
C53         C  0.39848044  0.26876264  0.85187762    -0.16400
C54         C  0.44046930  0.29462877  0.85591916     0.02500
C55         C  0.44536363  0.37234178  0.92755258     0.12400
C56         C  0.35740569  0.31069332  0.93262004     0.63100
H57         H  0.34050460  0.25399654  0.87406049     0.12500
C58         C  0.47005589  0.29183336  0.82746542     0.55200
H59         H  0.48646123  0.34701493  0.88700783     0.08300
C60         C  0.46681063  0.38435869  0.96498136    -0.05500
C61         C  0.48510535  0.42482464  0.97663074    -0.06300
C62         C  0.48451587  0.45469633  0.95182394    -0.15900
C63         C  0.47166776  0.44189828  0.90933474    -0.01500
C64         C  0.44719740  0.40125916  0.90105142    -0.09000
C65         C  0.47248031  0.35518741  0.99119151     0.65300
H66         H  0.50337697  0.43325530  0.00336938     0.10700
C67         C  0.48482590  0.46681072  0.86971198     0.63700
H68         H  0.43338061  0.39182489  0.87080661     0.08100
F69         F  0.46904650  0.25623779  0.83378332    -0.19400
F70         F  0.50899374  0.32221727  0.83433460    -0.15600
F71         F  0.46039048  0.29423201  0.78683966    -0.19100
F72         F  0.36190084  0.34780527  0.92629113    -0.22500
F73         F  0.36429198  0.30676404  0.97371815    -0.24000
F74         F  0.31804785  0.28261846  0.92352486    -0.18000
F75         F  0.97409353  0.43259130  0.83846179    -0.20400
F76         F  0.50892096  0.98728651  0.87043941    -0.21600
F77         F  0.45516804  0.47425594  0.85657794    -0.18800
F78         F  0.48973221  0.37128598  0.02900398    -0.18900
F79         F  0.49715769  0.34474636  0.97080539    -0.22700
F80         F  0.43604105  0.32133375  0.99833563    -0.24300
C81         C  0.19479413  0.07924877  0.90016022    -0.11100
C82         C  0.15673276  0.06711453  0.88353168     0.11500
C83         C  0.15300478  0.07809532  0.84271873    -0.02900
C84         C  0.18775073  0.09933866  0.81910998    -0.05700
C85         C  0.22572714  0.11124214  0.83554724    -0.16400
C86         C  0.22968943  0.10127829  0.87661470     0.02500
C87         C  0.12166500  0.04816256  0.91116653     0.12400
C88         C  0.11276882  0.06881843  0.82464473     0.63100
H89         H  0.18566955  0.10729479  0.78750402     0.12500
C90         C  0.27035686  0.11296789  0.89490519     0.55200
H91         H  0.19685302  0.07152878  0.93184525     0.08300
C92         C  0.09683989  0.00723807  0.91499912    -0.05500
C93         C  0.06049265  0.99276986  0.93641339    -0.06300
C94         C  0.04446168  0.01696451  0.95207639    -0.15900
C95         C  0.07437543  0.05985896  0.94944820    -0.01500
C96         C  0.11234866  0.07300545  0.93215836    -0.09000
C97         C  0.10969478  0.97905650  0.89766888     0.65300
H98         H  0.04286226  0.46201170  0.93329958     0.10700
C99         C  0.07091853  0.09633761  0.95708927     0.63700
H100        H  0.13417724  0.10463974  0.93040781     0.08100
F101        F  0.28737345  0.09489657  0.87295353    -0.19400
F102        F  0.26763564  0.10143472  0.93574933    -0.15600
F103        F  0.29504564  0.15379021  0.89300594    -0.19100
F104        F  0.09738299  0.08805099  0.84720380    -0.22500
F105        F  0.08613100  0.02839296  0.82564212    -0.24000
F106        F  0.11605077  0.08128999  0.78408521    -0.18000
F107        F  0.09812163  0.12017009  0.98693119    -0.20400
F108        F  0.03424189  0.08705585  0.96821163    -0.21600
F109        F  0.07911063  0.11869815  0.92134436    -0.18800
F110        F  0.07741011  0.43960910  0.89525095    -0.18900
F111        F  0.14651480  0.98831454  0.91414392    -0.22700
F112        F  0.11303744  0.98275609  0.85530223    -0.24300
C113        C  0.40430857  0.99932833  0.91958944    -0.11100
C114        C  0.42387219  0.03121294  0.89286679     0.11500
C115        C  0.46443794  0.04605473  0.88444290    -0.02900
C116        C  0.48552088  0.03259930  0.90851938    -0.05700
C117        C  0.46832215  0.00379227  0.94076228    -0.16400
C118        C  0.42429650  0.98239514  0.94069833     0.02500
C119        C  0.40174551  0.04919092  0.87413967     0.12400
C120        C  0.48537164  0.07591409  0.84978362     0.63100
H121        H  0.01790608  0.04861516  0.90597382     0.12500
C122        C  0.39355399  0.94054953  0.95624160     0.55200
H123        H  0.37224145  0.98661109  0.92311307     0.08300
C124        C  0.37647683  0.03250420  0.83932511    -0.05500
C125        C  0.36355824  0.05568266  0.81836388    -0.06300
C126        C  0.37504459  0.09426213  0.83145841    -0.15900
C127        C  0.39711656  0.10939229  0.86835754    -0.01500
C128        C  0.40989184  0.08619682  0.88948741    -0.09000
C129        C  0.36368004  0.99090096  0.82407260     0.65300
H130        H  0.34546935  0.04442169  0.79065461     0.10700
C131        C  0.40769753  0.14997448  0.88473276     0.63700
H132        H  0.42845883  0.09778868  0.91684026     0.08100
F133        F  0.38011976  0.42378910  0.92111300    -0.19400
F134        F  0.36562231  0.94229382  0.98112940    -0.15600
F135        F  0.40783346  0.92005204  0.97757745    -0.19100
F136        F  0.48832066  0.11185169  0.85941365    -0.22500
F137        F  0.46388177  0.06170284  0.81346763    -0.24000
F138        F  0.02836243  0.09306557  0.85409468    -0.18000
F139        F  0.42543541  0.15704308  0.92338431    -0.20400
F140        F  0.37344592  0.15267834  0.88781040    -0.21600
F141        F  0.43418811  0.17901388  0.85822373    -0.18800
F142        F  0.35122918  0.48437151  0.78493541    -0.18900
F143        F  0.34016114  0.96334418  0.85348197    -0.22700
F144        F  0.39683181  0.98723885  0.81652943    -0.24300
C145        C  0.40084384  0.30959084  0.60740184    -0.11100
C146        C  0.42408472  0.34838917  0.62235078     0.11500
C147        C  0.43412080  0.35415369  0.66504938    -0.02900
C148        C  0.41835647  0.32066299  0.69116329    -0.05700
C149        C  0.39570265  0.28196537  0.67550412    -0.16400
C150        C  0.39022446  0.27644425  0.63241618     0.02500
C151        C  0.43717088  0.38209155  0.59272124     0.12400
C152        C  0.46072251  0.39513431  0.68342466     0.63100
H153        H  0.42333879  0.32448388  0.72416308     0.12500
C154        C  0.37853224  0.23781646  0.61052242     0.55200
H155        H  0.39149691  0.30486104  0.57552047     0.08300
C156        C  0.46018587  0.38702539  0.55713946    -0.05500
C157        C  0.47472688  0.42272033  0.53443240    -0.06300
C158        C  0.46789856  0.45389965  0.54486055    -0.15900
C159        C  0.43234182  0.43971072  0.57105236    -0.01500
C160        C  0.42252644  0.40783575  0.59814998    -0.09000
C161        C  0.47167982  0.35644995  0.54402429     0.65300
H162        H  0.00202451  0.43146516  0.51348076     0.10700
C163        C  0.39820691  0.44916354  0.56859763     0.63700
H164        H  0.39934319  0.40005956  0.62100772     0.08100
F165        F  0.41133409  0.24238685  0.58887758    -0.19400
F166        F  0.34814632  0.22941315  0.58260606    -0.15600
F167        F  0.36658518  0.20606270  0.63707423    -0.19100
F168        F  0.43982794  0.41524172  0.68567583    -0.22500
F169        F  0.49444329  0.41649646  0.65949316    -0.24000
F170        F  0.47339027  0.39287852  0.72287421    -0.18000
F171        F  0.39996364  0.47204417  0.53562594    -0.20400
F172        F  0.39628377  0.46685671  0.60465285    -0.21600
F173        F  0.36194541  0.41407084  0.56482216    -0.18800
F174        F  0.01049365  0.37651644  0.51769286    -0.18900
F175        F  0.43925139  0.32404974  0.52606318    -0.22700
F176        F  0.99655420  0.35217435  0.58172846    -0.24300
C177        C  0.11478464  0.03831692  0.56481006    -0.11100
C178        C  0.12391150  0.07202099  0.58705571     0.11500
C179        C  0.09803208  0.08696112  0.58498295    -0.02900
C180        C  0.06268013  0.06589145  0.56170519    -0.05700
C181        C  0.04689915  0.02621089  0.54442149    -0.16400
C182        C  0.07506271  0.01131101  0.55178184     0.02500
C183        C  0.15900306  0.08857653  0.61528336     0.12400
C184        C  0.10818953  0.12562468  0.60693166     0.63100
H185        H  0.04645518  0.08143003  0.56054806     0.12500
C186        C  0.06772427  0.47068371  0.56443722     0.55200
H187        H  0.13785127  0.03024750  0.56469428     0.08300
C188        C  0.15675824  0.07234954  0.65516551    -0.05500
C189        C  0.19140873  0.08904178  0.67999122    -0.06300
C190        C  0.22782049  0.12044359  0.66584962    -0.15900
C191        C  0.23001800  0.13620019  0.62606224    -0.01500
C192        C  0.19540760  0.12001260  0.60124329    -0.09000
C193        C  0.11815513  0.03752772  0.67147291     0.65300
H194        H  0.19050857  0.07751692  0.71067397     0.10700
C195        C  0.26914017  0.16906786  0.60974079     0.63700
H196        H  0.19653311  0.13135030  0.57042830     0.08100
F197        F  0.03640400  0.45187119  0.59125628    -0.19400
F198        F  0.09852496  0.96568262  0.57204822    -0.15600
F199        F  0.06402399  0.44826902  0.53031907    -0.19100
F200        F  0.14345144  0.15651014  0.59141489    -0.22500
F201        F  0.11305452  0.12226930  0.64872678    -0.24000
F202        F  0.07859171  0.13550571  0.60202880    -0.18000
F203        F  0.29543945  0.15491363  0.60655281    -0.20400
F204        F  0.28455124  0.20112225  0.63643882    -0.21600
F205        F  0.26479915  0.18195164  0.57121778    -0.18800
F206        F  0.12258173  0.02748445  0.71137761    -0.18900
F207        F  0.12728569  0.50685131  0.67309926    -0.22700
F208        F  0.08821428  0.04700339  0.67159094    -0.24300
C209        C  0.45977296  0.04858675  0.60966744    -0.12500
C210        C  0.44240701  0.06515748  0.58505399     0.11500
C211        C  0.44441918  0.06309943  0.54201553    -0.02900
C212        C  0.46332713  0.04349022  0.52521609    -0.05700
C213        C  0.47929926  0.02375083  0.54867377    -0.16400
C214        C  0.47751939  0.02760755  0.59349797     0.02500
C215        C  0.42369393  0.08520247  0.60655058     0.12400
C216        C  0.42642688  0.08018880  0.51216900     0.63100
H217        H  0.46489029  0.04388706  0.49296557     0.12500
C218        C  0.99476786  0.01840800  0.62513947     0.55200
H219        H  0.45874984  0.05159302  0.64285163     0.08300
C220        C  0.38290692  0.06489642  0.61825624    -0.05500
C221        C  0.36960411  0.08376815  0.64526336    -0.06300
C222        C  0.39518621  0.12228711  0.66063854    -0.15900
C223        C  0.43560676  0.14352704  0.64692785    -0.01500
C224        C  0.44905774  0.12428689  0.62013536    -0.09000
C225        C  0.35223242  0.02311181  0.60449630     0.65300
H226        H  0.33858020  0.06761558  0.65498941     0.10700
C227        C  0.46509376  0.18542725  0.66152504     0.63700
H228        H  0.48010159  0.13906950  0.61062149     0.08100
F229        F  0.96366704  0.99612333  0.65198887    -0.19400
F230        F  0.02382249  0.05079686  0.64676184    -0.15600
F231        F  0.01080045  0.99533880  0.61419867    -0.19100
F232        F  0.45656152  0.10927401  0.48842992    -0.22500
F233        F  0.40658715  0.09694779  0.53126290    -0.24000
F234        F  0.39924087  0.05011528  0.48670621    -0.18000
F235        F  0.46845443  0.18602139  0.70404554    -0.20400
F236        F  0.45208734  0.21112083  0.64909056    -0.21600
F237        F  0.50296243  0.19937800  0.64539929    -0.18800
F238        F  0.31863571  0.02301937  0.58921212    -0.18900
F239        F  0.34117207  0.99775064  0.63801852    -0.22700
F240        F  0.36716471  0.51233934  0.56940038    -0.24300
C241        C  0.02453396  0.42162743  0.41826006    -0.11100
C242        C  0.06585191  0.44219382  0.42177691     0.11500
C243        C  0.08442713  0.47803023  0.44391267    -0.02900
C244        C  0.06043426  0.49241686  0.46077549    -0.05700
C245        C  0.01771574  0.47356744  0.45644395    -0.16400
C246        C  0.99931409  0.43458260  0.43524907     0.02500
C247        C  0.08777750  0.42818168  0.39494695     0.12400
C248        C  0.12971758  0.50159287  0.44889709     0.63100
H249        H  0.07626993  0.52123681  0.47505151     0.12500
C250        C  0.45384912  0.40348710  0.42386875     0.55200
H251        H  0.01243503  0.39496778  0.39970764     0.08300
C252        C  0.09081350  0.39408745  0.40410554    -0.05500
C253        C  0.10542640  0.37879756  0.37358566    -0.06300
C254        C  0.11562348  0.39548385  0.33384143    -0.15900
C255        C  0.11148185  0.42904968  0.32452008    -0.01500
C256        C  0.09827252  0.44496766  0.35548557    -0.09000
C257        C  0.07721250  0.37300591  0.44529350     0.65300
H258        H  0.10807472  0.35292621  0.38026266     0.10700
C259        C  0.11809382  0.44656942  0.28138472     0.63700
H260        H  0.09426701  0.46995225  0.34851750     0.08100
F261        F  0.43487792  0.38694298  0.46040631    -0.19400
F262        F  0.44890722  0.37127966  0.40101344    -0.15600
F263        F  0.43388029  0.41814828  0.40139421    -0.19100
F264        F  0.14254196  0.53694368  0.46981537    -0.22500
F265        F  0.14793536  0.51076644  0.41075577    -0.24000
F266        F  0.14229415  0.47929097  0.47081931    -0.18000
F267        F  0.09556274  0.41670955  0.25339479    -0.20400
F268        F  0.15822293  0.46468317  0.27139101    -0.21600
F269        F  0.10658477  0.47491704  0.27793513    -0.18800
F270        F  0.08615046  0.34286501  0.44942091    -0.18900
F271        F  0.53868048  0.36126076  0.44829733    -0.22700
F272        F  0.09592110  0.39968893  0.47711219    -0.24300
C273        C  0.40234446  0.48027378  0.40066965    -0.11100
C274        C  0.37284761  0.44366360  0.41485886     0.11500
C275        C  0.38029177  0.42737491  0.44994614    -0.02900
C276        C  0.41905977  0.44753632  0.46729680    -0.05700
C277        C  0.45124378  0.48431370  0.45319626    -0.16400
C278        C  0.43844922  0.50385759  0.42224138     0.02500
C279        C  0.33600429  0.42231163  0.38964496     0.12400
C280        C  0.34824182  0.38764374  0.46757623     0.63100
H281        H  0.42365630  0.43175377  0.49054532     0.12500
C282        C  0.45565525  0.54752884  0.40831177     0.55200
H283        H  0.39547041  0.49192209  0.37324574     0.08300
C284        C  0.30688217  0.43407573  0.38802856    -0.05500
C285        C  0.27612521  0.41638622  0.35847222    -0.06300
C286        C  0.27327517  0.38705217  0.33102958    -0.15900
C287        C  0.30115413  0.37327164  0.33509272    -0.01500
C288        C  0.33293117  0.39256909  0.36327984    -0.09000
C289        C  0.30879615  0.46583986  0.41665263     0.65300
H290        H  0.25449608  0.42623571  0.35612489     0.10700
C291        C  0.29808893  0.33844868  0.31070517     0.63700
H292        H  0.35628896  0.38492211  0.36475557     0.08100
F293        F  0.46997825  0.55219398  0.36855770    -0.19400
F294        F  0.48720818  0.07952796  0.43442922    -0.15600
F295        F  0.42511517  0.55643588  0.40741819    -0.19100
F296        F  0.31615608  0.39100998  0.48088086    -0.22500
F297        F  0.36230169  0.37538231  0.50051965    -0.24000
F298        F  0.33499405  0.35811083  0.43812142    -0.18000
F299        F  0.30454697  0.34797931  0.26930650    -0.20400
F300        F  0.26064029  0.30523752  0.31620765    -0.21600
F301        F  0.32613889  0.32838238  0.32355540    -0.18800
F302        F  0.27472254  0.46898780  0.41353134    -0.18900
F303        F  0.34135805  0.50239145  0.40693958    -0.22700
F304        F  0.31234998  0.45668401  0.45709864    -0.24300
C305        C  0.07105216  0.17725807  0.38336849    -0.11100
C306        C  0.09546783  0.16018891  0.38691418     0.11500
C307        C  0.13347517  0.17894027  0.36805933    -0.02900
C308        C  0.14453663  0.21272039  0.34337141    -0.05700
C309        C  0.11911138  0.22867063  0.33759489    -0.16400
C310        C  0.08256274  0.21179557  0.35973986     0.02500
C311        C  0.07925670  0.12173391  0.40935001     0.12400
C312        C  0.16223454  0.16347802  0.37450397     0.63100
H313        H  0.17282757  0.22612595  0.32724367     0.12500
C314        C  0.05630854  0.23056134  0.35976530     0.55200
H315        H  0.04240737  0.16280428  0.39890987     0.08300
C316        C  0.07267471  0.11821441  0.45196099    -0.05500
C317        C  0.04760082  0.08030994  0.46881014    -0.06300
C318        C  0.02860869  0.04437663  0.44632222    -0.15900
C319        C  0.03901781  0.04885953  0.40236719    -0.01500
C320        C  0.06389610  0.08731391  0.38586255    -0.09000
C321        C  0.08999268  0.15356129  0.48106372     0.65300
H322        H  0.03895059  0.08051695  0.49890823     0.10700
C323        C  0.02521723  0.01588513  0.36998509     0.63700
H324        H  0.07041199  0.09126855  0.35319996     0.08100
F325        F  0.02748387  0.21455047  0.39023174    -0.19400
F326        F  0.03686807  0.22433976  0.32226305    -0.15600
F327        F  0.07957343  0.27096844  0.36709935    -0.19100
F328        F  0.14700196  0.12647893  0.35649506    -0.22500
F329        F  0.16767011  0.16036470  0.41626788    -0.24000
F330        F  0.19937472  0.18858891  0.35741520    -0.18000
F331        F  0.98723667  0.98549012  0.37662631    -0.20400
F332        F  0.05906334  0.50615527  0.37268204    -0.21600
F333        F  0.02446008  0.02956744  0.33064473    -0.18800
F334        F  0.10978497  0.14683708  0.51287346    -0.18900
F335        F  0.05925285  0.15769322  0.49723821    -0.22700
F336        F  0.11718249  0.18894010  0.46246036    -0.24300
C337        C  0.03572035  0.46579355  0.11207444    -0.11100
C338        C  0.06351458  0.45847292  0.09287221     0.11500
C339        C  0.07511449  0.47262272  0.05251899    -0.02900
C340        C  0.05639404  0.49132103  0.03232073    -0.05700
C341        C  0.02258656  0.49273022  0.04782466    -0.16400
C342        C  0.01834454  0.48601847  0.09213924     0.02500
C343        C  0.08192900  0.43848015  0.11674703     0.12400
C344        C  0.10731910  0.46798041  0.03069409     0.63100
H345        H  0.07084393  0.50668003  0.00549122     0.12500
C346        C  0.50233833  0.50188715  0.12486994     0.55200
H347        H  0.02911575  0.45746712  0.14425588     0.08300
C348        C  0.11379136  0.45927300  0.14531269    -0.05500
C349        C  0.12951214  0.43826006  0.16649771    -0.06300
C350        C  0.11341681  0.39707226  0.16154595    -0.15900
C351        C  0.08201687  0.37646488  0.13256796    -0.01500
C352        C  0.06671959  0.39756896  0.11079120    -0.09000
C353        C  0.13031559  0.50314793  0.15447801     0.65300
H354        H  0.15356338  0.45361363  0.18865029     0.10700
C355        C  0.06581794  0.33274175  0.12357106     0.63700
H356        H  0.04242080  0.38214656  0.08897825     0.08100
F357        F  0.53091097  0.52432652  0.15435510    -0.19400
F358        F  0.47071555  0.47026435  0.14433839    -0.15600
F359        F  0.48924867  0.52563917  0.10834700    -0.19100
F360        F  0.09546718  0.42813169  0.02762297    -0.22500
F361        F  0.14297230  0.48729084  0.05242370    -0.24000
F362        F  0.11442548  0.48355753  0.99127586    -0.18000
F363        F  0.04670885  0.31019608  0.15792836    -0.20400
F364        F  0.09706380  0.32676735  0.11306145    -0.21600
F365        F  0.03858446  0.31948317  0.09120076    -0.18800
F366        F  0.16242240  0.51788554  0.18166458    -0.18900
F367        F  0.10084980  0.50848171  0.17200910    -0.22700
F368        F  0.13890698  0.02199418  0.12385442    -0.24300
C369        C  0.31547417  0.38180697  0.10223478    -0.11100
C370        C  0.35151192  0.40609946  0.12372825     0.11500
C371        C  0.34990693  0.41349435  0.16621038    -0.02900
C372        C  0.31232394  0.39868751  0.18491557    -0.05700
C373        C  0.27625502  0.37558791  0.16327557    -0.16400
C374        C  0.27768356  0.36573337  0.12154718     0.02500
C375        C  0.38901633  0.42944054  0.09919853     0.12400
C376        C  0.38768914  0.43629186  0.19199116     0.63100
H377        H  0.31078292  0.40516349  0.21707586     0.12500
C378        C  0.23962647  0.34005057  0.09712837     0.55200
H379        H  0.31721151  0.37674816  0.06969630     0.08300
C380        C  0.41031154  0.41378701  0.07945656    -0.05500
C381        C  0.44244549  0.43878489  0.05315288    -0.06300
C382        C  0.45305279  0.47841232  0.04030617    -0.15900
C383        C  0.42484989  0.48957975  0.05730479    -0.01500
C384        C  0.39959541  0.46825300  0.09045368    -0.09000
C385        C  0.40277515  0.37209319  0.08723765     0.65300
H386        H  0.46078665  0.42671296  0.04543723     0.10700
C387        C  0.40498855  0.00890717  0.04137807     0.63700
H388        H  0.38194048  0.47940202  0.10517974     0.08100
F389        F  0.21907282  0.30248045  0.11433894    -0.19400
F390        F  0.24763258  0.33599900  0.05645782    -0.15600
F391        F  0.21557648  0.35699404  0.09758267    -0.19100
F392        F  0.38122527  0.92212546  0.23320351    -0.22500
F393        F  0.40994956  0.47502442  0.17817094    -0.24000
F394        F  0.41012628  0.41772824  0.18928701    -0.18000
F395        F  0.36779123  0.49371989  0.03574886    -0.20400
F396        F  0.41614618  0.02012225  0.00229403    -0.21600
F397        F  0.41539985  0.04113485  0.06675245    -0.18800
F398        F  0.43722610  0.37434702  0.10306839    -0.18900
F399        F  0.39318926  0.35163029  0.05031046    -0.22700
F400        F  0.37207124  0.35067510  0.11469704    -0.24300
C401        C  0.05450148  0.14495795  0.16061335    -0.11100
C402        C  0.05744888  0.14992095  0.11773794     0.11500
C403        C  0.07605820  0.18908538  0.10096642    -0.02900
C404        C  0.09304266  0.22182524  0.12796483    -0.05700
C405        C  0.09168356  0.21677164  0.17064650    -0.16400
C406        C  0.07120066  0.17784293  0.18750929     0.02500
C407        C  0.04234177  0.11359570  0.09154516     0.12400
C408        C  0.07590184  0.19709280  0.05520060     0.63100
H409        H  0.10769387  0.25188287  0.11592474     0.12500
C410        C  0.06642867  0.17115203  0.23368551     0.55200
H411        H  0.03968823  0.11497516  0.17283801     0.08300
C412        C  0.06806086  0.10070086  0.07677021    -0.05500
C413        C  0.05274313  0.06862605  0.04887388    -0.06300
C414        C  0.01206382  0.04739173  0.03495172    -0.15900
C415        C  0.99027501  0.06831855  0.04379744    -0.01500
C416        C  0.00234929  0.09359558  0.07872380    -0.09000
C417        C  0.11098970  0.11925327  0.09248265     0.65300
H418        H  0.07323261  0.05965867  0.03828656     0.10700
C419        C  0.48089556  0.09214543  0.00452157     0.63700
H420        H  0.98398667  0.10573513  0.08896711     0.08100
F421        F  0.10344336  0.18425524  0.25185625    -0.19400
F422        F  0.04208343  0.13137200  0.24347918    -0.15600
F423        F  0.04920030  0.19181894  0.24983834    -0.19100
F424        F  0.03833860  0.19021606  0.04420573    -0.22500
F425        F  0.08531540  0.17318870  0.03219125    -0.24000
F426        F  0.10351830  0.23616230  0.04546377    -0.18000
F427        F  0.45131638  0.09942236  0.01832471    -0.20400
F428        F  0.46759062  0.07220220  0.96796486    -0.21600
F429        F  0.51382562  0.12870355  0.99540061    -0.18800
F430        F  0.13079270  0.10124051  0.07579973    -0.18900
F431        F  0.11088478  0.11522148  0.13486879    -0.22700
F432        F  0.13234903  0.15919313  0.08257451    -0.24300
O433        O  0.23750527  0.84344888  0.27852432    -0.84600
O434        O  0.16731835  0.78126273  0.30511778    -0.81600
C435        C  0.13059028  0.75979967  0.31267078     0.98900
O436        O  0.10517021  0.76391626  0.29141187    -0.81700
O437        O  0.11495252  0.83923575  0.30473763    -0.84300
C438        C  0.13106431  0.87668935  0.30462199     1.03400
O439        O  0.15733324  0.89673251  0.27803867    -0.77100
O440        O  0.22083057  0.88642825  0.29879028    -0.77300
C441        C  0.24240119  0.87075287  0.30285284     1.03400
O442        O  0.21193582  0.82203735  0.19480669    -0.84600
O443        O  0.14295641  0.75451894  0.22239412    -0.81600
C444        C  0.11316091  0.74987306  0.20152063     0.98900
O445        O  0.10152604  0.77490628  0.20397612    -0.81700
O446        O  0.10674185  0.84815016  0.21675950    -0.84300
C447        C  0.13095929  0.87425750  0.19159486     1.03400
O448        O  0.16805348  0.88614308  0.19344167    -0.77100
O449        O  0.23814046  0.88432364  0.21322393    -0.77200
C450        C  0.23919413  0.85788038  0.19141416     1.03300
Cr451      Cr  0.18777770  0.80263501  0.24991046     1.93700
Cr452      Cr  0.11122301  0.80844264  0.25388269     1.93200
Cr453      Cr  0.19375464  0.88410916  0.24593552     1.39100
O454        O  0.16396656  0.83155958  0.24931801    -1.22300
C455        C  0.49871014  0.50662230  0.02113940    -0.01700
C456        C  0.99949875  0.00290344  0.46963202    -0.01700
O457        O  0.28374242  0.66645927  0.80296261    -0.84600
O458        O  0.35470948  0.73809616  0.79340534    -0.81600
C459        C  0.37977429  0.73604281  0.81724096     0.98900
O460        O  0.39131096  0.71170193  0.81006841    -0.81700
O461        O  0.39216190  0.64660891  0.78006728    -0.84300
C462        C  0.36490583  0.61707828  0.79910173     1.03400
O463        O  0.32852157  0.60503892  0.79201890    -0.77100
O464        O  0.26176045  0.60891261  0.77212727    -0.77300
C465        C  0.25948105  0.62946774  0.80086404     1.03400
O466        O  0.26803151  0.66312609  0.71579906    -0.84600
O467        O  0.34334860  0.73001884  0.70479632    -0.81600
C468        C  0.38114167  0.75071039  0.70337241     0.98900
O469        O  0.40254946  0.74439492  0.72839507    -0.81700
O470        O  0.39669247  0.67622897  0.69786137    -0.84300
C471        C  0.38116042  0.64018028  0.68824046     1.03400
O472        O  0.35114779  0.61397753  0.70769543    -0.77100
O473        O  0.28710608  0.62411535  0.68799161    -0.77200
C474        C  0.26418709  0.63840746  0.68825755     1.03300
Cr475      Cr  0.31437321  0.69745539  0.75383438     1.93700
Cr476      Cr  0.39140163  0.69282758  0.75377299     1.93200
Cr477      Cr  0.30953860  0.61723264  0.74052580     1.39100
O478        O  0.33844723  0.66915142  0.74939770    -1.22300
C479        C  0.99767869  0.99350557  0.96977992    -0.01700
C480        C  0.00047840  0.00423993  0.52458035    -0.01700
C481        C  0.45270281  0.82050614  0.88655844    -0.11100
C482        C  0.42631671  0.82362198  0.91372121     0.11500
C483        C  0.38500555  0.79482142  0.91221455    -0.02900
C484        C  0.37110253  0.76504426  0.88163685    -0.05700
C485        C  0.39717919  0.76391124  0.85242105    -0.16400
C486        C  0.43886645  0.79155898  0.85533539     0.02500
C487        C  0.44088175  0.86350052  0.93220954     0.12400
C488        C  0.35567201  0.79686166  0.94157487     0.63100
H489        H  0.33942195  0.74353340  0.87903126     0.12500
C490        C  0.46820907  0.79325744  0.82326720     0.55200
H491        H  0.48392721  0.84367165  0.88737891     0.08300
C492        C  0.46645270  0.87821864  0.96676764    -0.05500
C493        C  0.48331476  0.91891261  0.97723797    -0.06300
C494        C  0.47858111  0.94680791  0.95284979    -0.15900
C495        C  0.46163465  0.93129110  0.91206488    -0.01500
C496        C  0.43711758  0.89021364  0.90687783    -0.09000
C497        C  0.47728066  0.85156504  0.99121570     0.65300
H498        H  0.50317266  0.92903621  0.00276370     0.10700
C499        C  0.47203044  0.95343130  0.87074210     0.63700
H500        H  0.41998624  0.87889978  0.87849291     0.08100
F501        F  0.46884487  0.75809333  0.82313297    -0.19400
F502        F  0.50689473  0.82384838  0.83084547    -0.15600
F503        F  0.45688258  0.79948091  0.78474750    -0.19100
F504        F  0.35395854  0.83100480  0.93431155    -0.22500
F505        F  0.36788630  0.79730907  0.98180574    -0.24000
F506        F  0.31742245  0.76449588  0.93704314    -0.18000
F507        F  0.98160840  0.93682883  0.84100144    -0.20400
F508        F  0.52056408  0.50169864  0.87291722    -0.21600
F509        F  0.44257358  0.96187377  0.85950420    -0.18800
F510        F  0.49966837  0.87044795  0.02598481    -0.18900
F511        F  0.49953234  0.84077907  0.96692892    -0.22700
F512        F  0.44298196  0.81757295  0.00365860    -0.24300
C513        C  0.19435768  0.57668610  0.89364111    -0.11100
C514        C  0.15656216  0.56729317  0.87822430     0.11500
C515        C  0.15322634  0.58013102  0.83812163    -0.02900
C516        C  0.18781863  0.60040410  0.81400707    -0.05700
C517        C  0.22550050  0.60988078  0.82939621    -0.16400
C518        C  0.22918513  0.59801999  0.86971332     0.02500
C519        C  0.12152514  0.54855395  0.90623669     0.12400
C520        C  0.11370766  0.57420024  0.82151400     0.63100
H521        H  0.18591672  0.60981282  0.78299119     0.12500
C522        C  0.26958784  0.60738937  0.88686681     0.55200
H523        H  0.19632980  0.56753582  0.92473255     0.08300
C524        C  0.09532266  0.50766046  0.90869693    -0.05500
C525        C  0.05915538  0.49359423  0.93055265    -0.06300
C526        C  0.04419823  0.51833791  0.94714979    -0.15900
C527        C  0.07467167  0.56106565  0.94431008    -0.01500
C528        C  0.11291700  0.57359717  0.92795677    -0.09000
C529        C  0.10639156  0.47900069  0.88909433     0.65300
H530        H  0.04522864  0.96133294  0.94018301     0.10700
C531        C  0.07109214  0.59774556  0.94976554     0.63700
H532        H  0.13521384  0.60510998  0.92667111     0.08100
F533        F  0.28490999  0.58870644  0.86326579    -0.19400
F534        F  0.26693422  0.59451195  0.92717710    -0.15600
F535        F  0.29564776  0.64802061  0.88601664    -0.19100
F536        F  0.10159451  0.59551778  0.84527070    -0.22500
F537        F  0.08465984  0.53443945  0.82248141    -0.24000
F538        F  0.11694150  0.58738135  0.78127415    -0.18000
F539        F  0.09809814  0.62299920  0.97900345    -0.20400
F540        F  0.03434868  0.58856635  0.96029804    -0.21600
F541        F  0.07908514  0.61856252  0.91299138    -0.18800
F542        F  0.08275336  0.93965918  0.90683571    -0.18900
F543        F  0.14196611  0.48495573  0.90601592    -0.22700
F544        F  0.11128432  0.48554776  0.84707830    -0.24300
C545        C  0.40971458  0.50479736  0.91855451    -0.11100
C546        C  0.42918204  0.53756895  0.89299612     0.11500
C547        C  0.47063953  0.55540837  0.88773798    -0.02900
C548        C  0.49167847  0.54197948  0.91198495    -0.05700
C549        C  0.47406218  0.51129142  0.94227674    -0.16400
C550        C  0.43004470  0.48868400  0.94044243     0.02500
C551        C  0.40577690  0.55327079  0.87228592     0.12400
C552        C  0.49277638  0.58882520  0.85657571     0.63100
H553        H  0.01825991  0.54779842  0.89885607     0.12500
C554        C  0.39957954  0.44657549  0.95542030     0.55200
H555        H  0.37736838  0.49073259  0.92056888     0.08300
C556        C  0.38203933  0.53540301  0.83665955    -0.05500
C557        C  0.36702790  0.55645276  0.81485601    -0.06300
C558        C  0.37593194  0.59450953  0.82725580    -0.15900
C559        C  0.39719098  0.61094324  0.86438164    -0.01500
C560        C  0.41078707  0.58927085  0.88704081    -0.09000
C561        C  0.37392385  0.49530708  0.82080722     0.65300
H562        H  0.35001381  0.54433428  0.78665837     0.10700
C563        C  0.40670392  0.65167251  0.87920778     0.63700
H564        H  0.42807239  0.60160742  0.91505678     0.08100
F565        F  0.37318521  0.91746030  0.92236769    -0.19400
F566        F  0.37094042  0.44764496  0.97973769    -0.15600
F567        F  0.41381685  0.42625263  0.97711537    -0.19100
F568        F  0.49292910  0.62271089  0.86947173    -0.22500
F569        F  0.47419395  0.57755104  0.81845055    -0.24000
F570        F  0.02354993  0.57658493  0.83497622    -0.18000
F571        F  0.42432435  0.66028912  0.91796338    -0.20400
F572        F  0.37191401  0.65346333  0.88122699    -0.21600
F573        F  0.43299598  0.68025420  0.85217863    -0.18800
F574        F  0.34154039  0.98200323  0.78792031    -0.18900
F575        F  0.35308772  0.46620659  0.84994225    -0.22700
F576        F  0.40966415  0.49677528  0.81247078    -0.24300
C577        C  0.40766019  0.81240646  0.60562919    -0.11100
C578        C  0.43351411  0.85062474  0.62069407     0.11500
C579        C  0.44493071  0.85551832  0.66291596    -0.02900
C580        C  0.42703432  0.82205357  0.68906418    -0.05700
C581        C  0.40082999  0.78384247  0.67363382    -0.16400
C582        C  0.39457008  0.77871705  0.63051844     0.02500
C583        C  0.44606871  0.88488132  0.59214857     0.12400
C584        C  0.47590967  0.89560913  0.68025190     0.63100
H585        H  0.43309423  0.82557812  0.72187246     0.12500
C586        C  0.37866672  0.73950077  0.60831940     0.55200
H587        H  0.39798887  0.80858128  0.57375622     0.08300
C588        C  0.46960933  0.89124721  0.55682616    -0.05500
C589        C  0.48212000  0.92662923  0.53399930    -0.06300
C590        C  0.47318922  0.95648150  0.54474204    -0.15900
C591        C  0.43767819  0.94065061  0.57125267    -0.01500
C592        C  0.42948786  0.90891903  0.59795265    -0.09000
C593        C  0.48512640  0.86335723  0.54560194     0.65300
H594        H  0.99571518  0.93103355  0.50849754     0.10700
C595        C  0.40226863  0.94829687  0.56991981     0.63700
H596        H  0.40646579  0.90009374  0.62124442     0.08100
F597        F  0.40909658  0.74090319  0.58478918    -0.19400
F598        F  0.34802267  0.73402168  0.58207071    -0.15600
F599        F  0.36526518  0.70742249  0.63467910    -0.19100
F600        F  0.46121391  0.92140551  0.67956901    -0.22500
F601        F  0.51038019  0.91122548  0.65697992    -0.24000
F602        F  0.48607728  0.89262611  0.72058618    -0.18000
F603        F  0.40254048  0.97127069  0.53772498    -0.20400
F604        F  0.39979389  0.96482785  0.60656808    -0.21600
F605        F  0.36683430  0.91239971  0.56595611    -0.18800
F606        F  0.00413465  0.87594528  0.51509867    -0.18900
F607        F  0.45408726  0.82657298  0.53394492    -0.22700
F608        F  0.99191741  0.85382472  0.57998977    -0.24300
C609        C  0.11449494  0.54085658  0.55921443    -0.11100
C610        C  0.12358687  0.57389921  0.58289016     0.11500
C611        C  0.09516326  0.58570444  0.58615663    -0.02900
C612        C  0.05797144  0.56261348  0.56638127    -0.05700
C613        C  0.04374926  0.52377808  0.54784462    -0.16400
C614        C  0.07405155  0.51148135  0.55195312     0.02500
C615        C  0.15924699  0.59016835  0.61042201     0.12400
C616        C  0.10454754  0.62295274  0.61033109     0.63100
H617        H  0.03989987  0.57621568  0.56762053     0.12500
C618        C  0.06635213  0.96843456  0.55673693     0.55200
H619        H  0.13800477  0.53351164  0.55620879     0.08300
C620        C  0.15814793  0.57349557  0.64989928    -0.05500
C621        C  0.19340904  0.58986245  0.67371953    -0.06300
C622        C  0.22923885  0.62227062  0.65989993    -0.15900
C623        C  0.23031150  0.63864789  0.62065401    -0.01500
C624        C  0.19523658  0.62227688  0.59634987    -0.09000
C625        C  0.12114398  0.53877675  0.66894441     0.65300
H626        H  0.19284057  0.57741717  0.70387713     0.10700
C627        C  0.26879954  0.67233697  0.60430675     0.63700
H628        H  0.19562944  0.63422250  0.56602297     0.08100
F629        F  0.03713955  0.94928941  0.58583929    -0.19400
F630        F  0.09992328  0.47327499  0.58652366    -0.15600
F631        F  0.05771441  0.94871865  0.51998864    -0.19100
F632        F  0.13722664  0.65559035  0.59301585    -0.22500
F633        F  0.11337708  0.61915026  0.65088837    -0.24000
F634        F  0.07281359  0.63001848  0.61052028    -0.18000
F635        F  0.29591343  0.65924525  0.60057607    -0.20400
F636        F  0.28344852  0.70409551  0.63135848    -0.21600
F637        F  0.26381571  0.68514517  0.56599499    -0.18800
F638        F  0.11508029  0.54956098  0.70761288    -0.18900
F639        F  0.10643200  0.00452923  0.64693926    -0.22700
F640        F  0.08652001  0.52655485  0.64637472    -0.24300
C641        C  0.45931280  0.54853284  0.60843317    -0.12500
C642        C  0.44379171  0.56661938  0.58341966     0.11500
C643        C  0.44625238  0.56476377  0.54047520    -0.02900
C644        C  0.46286015  0.54292243  0.52401343    -0.05700
C645        C  0.47734709  0.52210129  0.54782630    -0.16400
C646        C  0.47568274  0.52621514  0.59262422     0.02500
C647        C  0.42623001  0.58783511  0.60432138     0.12400
C648        C  0.43118724  0.58454014  0.51045684     0.63100
H649        H  0.46388346  0.54241475  0.49177250     0.12500
C650        C  0.98884489  0.51360338  0.62745205     0.55200
H651        H  0.45796717  0.55147723  0.64158870     0.08300
C652        C  0.38452355  0.57062902  0.61084668    -0.05500
C653        C  0.37133979  0.59081995  0.63589577    -0.06300
C654        C  0.39807130  0.62683052  0.65535778    -0.15900
C655        C  0.43962417  0.64551102  0.64641690    -0.01500
C656        C  0.45290469  0.62534156  0.62091626    -0.09000
C657        C  0.35234973  0.53110716  0.59333039     0.65300
H658        H  0.33946657  0.57722669  0.64168323     0.10700
C659        C  0.47012410  0.68541521  0.66472649     0.63700
H660        H  0.48457158  0.63796872  0.61484320     0.08100
F661        F  0.95828038  0.49114350  0.65477473    -0.19400
F662        F  0.01747544  0.54682955  0.64843447    -0.15600
F663        F  0.00577188  0.49133141  0.61698445    -0.19100
F664        F  0.46267270  0.61150845  0.48647790    -0.22500
F665        F  0.41482006  0.60486466  0.52922099    -0.24000
F666        F  0.40201276  0.55571529  0.48540290    -0.18000
F667        F  0.46959177  0.68293070  0.70729132    -0.20400
F668        F  0.46124051  0.71423117  0.65248898    -0.21600
F669        F  0.50869155  0.69742154  0.65184927    -0.18800
F670        F  0.32637772  0.53740406  0.56918582    -0.18900
F671        F  0.33099793  0.50588364  0.62539030    -0.22700
F672        F  0.36600083  0.00853681  0.57398113    -0.24300
C673        C  0.02610181  0.92517641  0.41448230    -0.11100
C674        C  0.06743532  0.94618142  0.41846746     0.11500
C675        C  0.08554559  0.98205334  0.44045538    -0.02900
C676        C  0.06107701  0.99569965  0.45752197    -0.05700
C677        C  0.01829647  0.97622513  0.45319071    -0.16400
C678        C  0.00026784  0.93769779  0.43092575     0.02500
C679        C  0.09005646  0.93183276  0.39332114     0.12400
C680        C  0.13080183  0.00629401  0.44532457     0.63100
H681        H  0.07648171  0.02414755  0.47267874     0.12500
C682        C  0.45733146  0.90697399  0.42406889     0.55200
H683        H  0.01457116  0.89829461  0.39640511     0.08300
C684        C  0.09287811  0.89796362  0.40418594    -0.05500
C685        C  0.10768001  0.88172238  0.37493928    -0.06300
C686        C  0.11852367  0.89741422  0.33487533    -0.15900
C687        C  0.11545658  0.93139023  0.32417463    -0.01500
C688        C  0.10177720  0.94808279  0.35383517    -0.09000
C689        C  0.07844701  0.87784959  0.44571562     0.65300
H690        H  0.10970126  0.85570518  0.38279119     0.10700
C691        C  0.12351668  0.94846034  0.28082633     0.63700
H692        H  0.09813299  0.97310291  0.34573670     0.08100
F693        F  0.43872673  0.89075468  0.46083872    -0.19400
F694        F  0.45220197  0.87448380  0.40158000    -0.15600
F695        F  0.43757390  0.92164754  0.40124681    -0.19100
F696        F  0.14286534  0.03997589  0.46907221    -0.22500
F697        F  0.14852269  0.01828667  0.40710207    -0.24000
F698        F  0.14455509  0.98350016  0.46421626    -0.18000
F699        F  0.10091160  0.91845285  0.25305048    -0.20400
F700        F  0.16379062  0.96541571  0.27188940    -0.21600
F701        F  0.11326433  0.97761730  0.27593166    -0.18800
F702        F  0.08862466  0.84883841  0.45227152    -0.18900
F703        F  0.53611957  0.86052059  0.44367564    -0.22700
F704        F  0.09533176  0.90545301  0.47708876    -0.24300
C705        C  0.40595463  0.98340488  0.40118329    -0.11100
C706        C  0.37706761  0.94619028  0.41478396     0.11500
C707        C  0.38485242  0.92974484  0.44950728    -0.02900
C708        C  0.42310165  0.95085706  0.46777527    -0.05700
C709        C  0.45500040  0.98767362  0.45362598    -0.16400
C710        C  0.44217192  0.00707823  0.42263135     0.02500
C711        C  0.34008729  0.92445980  0.38991447     0.12400
C712        C  0.35462229  0.88797229  0.46430522     0.63100
H713        H  0.42796008  0.93548044  0.49130476     0.12500
C714        C  0.45948801  0.05088425  0.40916886     0.55200
H715        H  0.39866792  0.99518840  0.37415768     0.08300
C716        C  0.30956707  0.93433646  0.39035714    -0.05500
C717        C  0.27776314  0.91541501  0.36204058    -0.06300
C718        C  0.27500967  0.88618487  0.33444983    -0.15900
C719        C  0.30412523  0.87389101  0.33713872    -0.01500
C720        C  0.33723285  0.89503065  0.36329653    -0.09000
C721        C  0.31095365  0.96508080  0.42015657     0.65300
H722        H  0.25505188  0.92392451  0.36098985     0.10700
C723        C  0.30086768  0.83852773  0.31369576     0.63700
H724        H  0.36159353  0.88880368  0.36319719     0.08100
F725        F  0.47511809  0.05627160  0.36997964    -0.19400
F726        F  0.48433348  0.57644686  0.43254777    -0.15600
F727        F  0.42879441  0.05955949  0.40726705    -0.19100
F728        F  0.31847370  0.88562820  0.47276971    -0.22500
F729        F  0.36740784  0.87733698  0.49946937    -0.24000
F730        F  0.34871090  0.86037040  0.43435140    -0.18000
F731        F  0.30490716  0.84623395  0.27188800    -0.20400
F732        F  0.26425550  0.80498591  0.32163638    -0.21600
F733        F  0.33030668  0.83003389  0.32549486    -0.18800
F734        F  0.27613170  0.96700148  0.41854284    -0.18900
F735        F  0.34262400  0.00228913  0.41063884    -0.22700
F736        F  0.31570320  0.95546826  0.46007783    -0.24300
C737        C  0.06892201  0.67391045  0.38729914    -0.11100
C738        C  0.09578086  0.66040474  0.39584508     0.11500
C739        C  0.13496048  0.68137331  0.37966904    -0.02900
C740        C  0.14525285  0.71431597  0.35382741    -0.05700
C741        C  0.11794957  0.72732552  0.34404920    -0.16400
C742        C  0.07964248  0.70781940  0.36292080     0.02500
C743        C  0.07983334  0.62165851  0.41784193     0.12400
C744        C  0.16567122  0.66894435  0.38952166     0.63100
H745        H  0.17469344  0.72947414  0.34004049     0.12500
C746        C  0.05020382  0.72268056  0.35839100     0.55200
H747        H  0.03879795  0.65693982  0.39933483     0.08300
C748        C  0.06941637  0.61698949  0.45963631    -0.05500
C749        C  0.04524578  0.57823935  0.47530780    -0.06300
C750        C  0.02903335  0.54287480  0.45161650    -0.15900
C751        C  0.04231227  0.54894071  0.40860831    -0.01500
C752        C  0.06810885  0.58792735  0.39398574    -0.09000
C753        C  0.08132307  0.65299347  0.48700879     0.65300
H754        H  0.03348042  0.57698886  0.50434265     0.10700
C755        C  0.03048533  0.51733962  0.37493971     0.63700
H756        H  0.07727082  0.59273432  0.36198605     0.08100
F757        F  0.01884841  0.70416533  0.38597098    -0.19400
F758        F  0.03414130  0.71512528  0.31903603    -0.15600
F759        F  0.06946460  0.76311839  0.36614566    -0.19100
F760        F  0.15291815  0.63121701  0.37453747    -0.22500
F761        F  0.17091905  0.66901374  0.43171689    -0.24000
F762        F  0.20255751  0.69452195  0.37217241    -0.18000
F763        F  0.99359516  0.48457900  0.38057399    -0.20400
F764        F  0.05140974  0.00163783  0.36905529    -0.21600
F765        F  0.02860697  0.53206685  0.33651606    -0.18800
F766        F  0.07160050  0.64243002  0.52776378    -0.18900
F767        F  0.06180237  0.67280881  0.47440438    -0.22700
F768        F  0.12220777  0.67865829  0.48500573    -0.24300
C769        C  0.03448015  0.95872071  0.11429899    -0.11100
C770        C  0.06358900  0.95350526  0.09497590     0.11500
C771        C  0.07630600  0.97017659  0.05564486    -0.02900
C772        C  0.05680557  0.98843996  0.03604669    -0.05700
C773        C  0.02209126  0.98816548  0.05154123    -0.16400
C774        C  0.01729873  0.97965638  0.09551523     0.02500
C775        C  0.08305854  0.93426303  0.11836221     0.12400
C776        C  0.11067263  0.96884671  0.03444307     0.63100
H777        H  0.07200226  0.00589640  0.01046468     0.12500
C778        C  0.50006699  0.99832080  0.12301429     0.55200
H779        H  0.02734393  0.94896995  0.14607088     0.08300
C780        C  0.11435837  0.95541356  0.14745494    -0.05500
C781        C  0.13132592  0.93525354  0.16802526    -0.06300
C782        C  0.11608711  0.89423993  0.16300656    -0.15900
C783        C  0.08508430  0.87319491  0.13378818    -0.01500
C784        C  0.06938577  0.89373001  0.11158452    -0.09000
C785        C  0.12826181  0.99839254  0.15868485     0.65300
H786        H  0.15508782  0.95090347  0.19039717     0.10700
C787        C  0.06935168  0.82943515  0.12559254     0.63700
H788        H  0.04554111  0.87800572  0.08934185     0.08100
F789        F  0.52823135  0.01996115  0.15314663    -0.19400
F790        F  0.46793676  0.96662524  0.14156940    -0.15600
F791        F  0.48785415  0.02285809  0.10666146    -0.19100
F792        F  0.10016728  0.92975272  0.02746104    -0.22500
F793        F  0.14476991  0.98663250  0.05875725    -0.24000
F794        F  0.12009533  0.98837679  0.99697813    -0.18000
F795        F  0.04940840  0.80730110  0.15989236    -0.20400
F796        F  0.10098350  0.82352270  0.11680965    -0.21600
F797        F  0.04301354  0.81570434  0.09247717    -0.18800
F798        F  0.16110185  0.01412215  0.18496413    -0.18900
F799        F  0.09765698  0.00030727  0.17835562    -0.22700
F800        F  0.14321429  0.52527999  0.11866848    -0.24300
C801        C  0.31179174  0.87604967  0.10313910    -0.11100
C802        C  0.34892799  0.89868643  0.12345512     0.11500
C803        C  0.34925393  0.90446678  0.16661639    -0.02900
C804        C  0.31266424  0.89077839  0.18707534    -0.05700
C805        C  0.27567540  0.86904704  0.16673754    -0.16400
C806        C  0.27502618  0.85970119  0.12452551     0.02500
C807        C  0.38564002  0.92261980  0.09790345     0.12400
C808        C  0.38801087  0.92533922  0.19113403     0.63100
H809        H  0.31269925  0.89747700  0.21943836     0.12500
C810        C  0.23575147  0.83369806  0.10215756     0.55200
H811        H  0.31175892  0.87238557  0.07006910     0.08300
C812        C  0.40578746  0.90703010  0.07593458    -0.05500
C813        C  0.43924631  0.93324620  0.05162534    -0.06300
C814        C  0.44962566  0.97308879  0.03998345    -0.15900
C815        C  0.42180871  0.98402240  0.05849918    -0.01500
C816        C  0.39748467  0.96220081  0.09199192    -0.09000
C817        C  0.39343957  0.86347623  0.07990882     0.65300
H818        H  0.45836243  0.92215004  0.04393259     0.10700
C819        C  0.40927684  0.51517060  0.03931180     0.63700
H820        H  0.38076105  0.97341820  0.10848105     0.08100
F821        F  0.21724624  0.79586983  0.11890614    -0.19400
F822        F  0.24142862  0.83057184  0.06056272    -0.15600
F823        F  0.21083979  0.84945481  0.10616898    -0.19100
F824        F  0.37925129  0.43754321  0.23320165    -0.22500
F825        F  0.40885389  0.96527235  0.18120516    -0.24000
F826        F  0.41101036  0.90822565  0.18251331    -0.18000
F827        F  0.36339407  0.98710249  0.03995640    -0.20400
F828        F  0.42246690  0.52740995  0.00095275    -0.21600
F829        F  0.41870370  0.54673379  0.06535106    -0.18800
F830        F  0.41866762  0.85454918  0.05838993    -0.18900
F831        F  0.35516318  0.84006010  0.06430387    -0.22700
F832        F  0.39408990  0.85387139  0.12084420    -0.24300
C833        C  0.06110164  0.64378380  0.15869198    -0.11100
C834        C  0.05789262  0.65068947  0.11673042     0.11500
C835        C  0.06994840  0.69003993  0.10354191    -0.02900
C836        C  0.08722046  0.72137266  0.13235393    -0.05700
C837        C  0.09221831  0.71474396  0.17382865    -0.16400
C838        C  0.07775503  0.67512716  0.18768600     0.02500
C839        C  0.04338475  0.61646900  0.08722100     0.12400
C840        C  0.06401366  0.69909142  0.05946662     0.63100
H841        H  0.09747577  0.75162045  0.12259713     0.12500
C842        C  0.07848740  0.66576787  0.23307187     0.55200
H843        H  0.05092367  0.61353422  0.16845091     0.08300
C844        C  0.06951268  0.60497140  0.07015466    -0.05500
C845        C  0.05398011  0.57296941  0.04202558    -0.06300
C846        C  0.01305682  0.55149614  0.02902574    -0.15900
C847        C  0.99198747  0.57303541  0.03746069    -0.01500
C848        C  0.00377795  0.59765015  0.07298755    -0.09000
C849        C  0.11333964  0.62525567  0.08298611     0.65300
H850        H  0.07417802  0.56367415  0.03112528     0.10700
C851        C  0.48770275  0.59919999  0.00865054     0.63700
H852        H  0.98527423  0.60946374  0.08361964     0.08100
F853        F  0.11753894  0.68120598  0.24660714    -0.19400
F854        F  0.05827078  0.62521458  0.24046217    -0.15600
F855        F  0.06015073  0.68212736  0.25572949    -0.19100
F856        F  0.02346590  0.68176822  0.05148365    -0.22500
F857        F  0.08115513  0.68456961  0.03251552    -0.24000
F858        F  0.08126255  0.73953164  0.05240876    -0.18000
F859        F  0.45843510  0.60683092  0.02262721    -0.20400
F860        F  0.47524600  0.58118251  0.97104041    -0.21600
F861        F  0.52121704  0.63571614  0.00126985    -0.18800
F862        F  0.13421140  0.61086998  0.06141163    -0.18900
F863        F  0.11617649  0.61886875  0.12450637    -0.22700
F864        F  0.13159300  0.66568988  0.07575290    -0.24300
O865        O  0.73613708  0.34406958  0.27487480    -0.84600
O866        O  0.66633105  0.28168481  0.30268940    -0.81600
C867        C  0.62968010  0.26005904  0.31066447     0.98900
O868        O  0.60384056  0.26382608  0.28990537    -0.81700
O869        O  0.61285531  0.33899952  0.30267717    -0.84300
C870        C  0.62900396  0.37649164  0.30233391     1.03400
O871        O  0.65492713  0.39629298  0.27542307    -0.77100
O872        O  0.71964323  0.38716566  0.29514613    -0.77300
C873        C  0.74164388  0.37186097  0.29874906     1.03400
O874        O  0.70979815  0.32182943  0.19165820    -0.84600
O875        O  0.64142682  0.25407575  0.22066956    -0.81600
C876        C  0.61102223  0.24854595  0.20043248     0.98900
O877        O  0.59881565  0.27317205  0.20274907    -0.81700
O878        O  0.60317954  0.34633271  0.21487345    -0.84300
C879        C  0.62687518  0.37243794  0.18947120     1.03400
O880        O  0.66405362  0.38462827  0.19076891    -0.77100
O881        O  0.73486962  0.38413652  0.20934901    -0.77200
C882        C  0.73658789  0.35786192  0.18794006     1.03300
Cr883      Cr  0.68614821  0.30272826  0.24720124     1.93700
Cr884      Cr  0.60889111  0.30755192  0.25212787     1.93200
Cr885      Cr  0.69098378  0.38367685  0.24279857     1.39100
O886        O  0.66171234  0.33113367  0.24682701    -1.22300
C887        C  0.99427633  0.00057274  0.02322992    -0.01700
C888        C  0.49593063  0.49882033  0.47146929    -0.01700
O889        O  0.78357441  0.16525431  0.80623735    -0.84600
O890        O  0.85369529  0.23761720  0.79642616    -0.81600
C891        C  0.87911821  0.23618040  0.82021623     0.98900
O892        O  0.89127617  0.21232106  0.81295585    -0.81700
O893        O  0.89301132  0.14747643  0.78327757    -0.84300
C894        C  0.86576141  0.11733924  0.80170296     1.03400
O895        O  0.82936452  0.10494184  0.79427766    -0.77100
O896        O  0.76216926  0.10808065  0.77479751    -0.77300
C897        C  0.75941507  0.12828777  0.80367131     1.03400
O898        O  0.76729151  0.16175175  0.71939985    -0.84600
O899        O  0.84185236  0.22938865  0.70805898    -0.81600
C900        C  0.87957687  0.25055295  0.70624687     0.98900
O901        O  0.90161333  0.24465116  0.73088102    -0.81700
O902        O  0.89726140  0.17697618  0.70054273    -0.84300
C903        C  0.88214640  0.14111655  0.69019173     1.03400
O904        O  0.85221688  0.11448333  0.70949373    -0.77100
O905        O  0.78762460  0.12417257  0.69060647    -0.77200
C906        C  0.76403890  0.13766468  0.69142263     1.03300
Cr907      Cr  0.81363063  0.19656666  0.75710633     1.93700
Cr908      Cr  0.89152581  0.19338526  0.75659462     1.93200
Cr909      Cr  0.81023727  0.11714763  0.74291148     1.39100
O910        O  0.83852283  0.16902289  0.75224217    -1.22300
C911        C  0.50246453  0.49968268  0.96781429    -0.01700
C912        C  0.49642739  0.49834216  0.52633363    -0.01700
C913        C  0.95135099  0.32013789  0.89069612    -0.11100
C914        C  0.92462693  0.32584262  0.91472574     0.11500
C915        C  0.88299168  0.29872188  0.91126878    -0.02900
C916        C  0.86931242  0.26806114  0.88170985    -0.05700
C917        C  0.89598449  0.26423896  0.85543949    -0.16400
C918        C  0.93788421  0.29005007  0.86069690     0.02500
C919        C  0.94028602  0.36634797  0.93208074     0.12400
C920        C  0.85321880  0.30361564  0.93724892     0.63100
H921        H  0.83746339  0.24804072  0.87741943     0.12500
C922        C  0.96830171  0.28861691  0.83232189     0.55200
H923        H  0.98292735  0.34208032  0.89287622     0.08300
C924        C  0.96513093  0.38094974  0.96715423    -0.05500
C925        C  0.98301760  0.42191504  0.97679235    -0.06300
C926        C  0.97913043  0.44993647  0.95180372    -0.15900
C927        C  0.96251461  0.43431783  0.91088776    -0.01500
C928        C  0.93798378  0.39321703  0.90571138    -0.09000
C929        C  0.97355317  0.35361223  0.99349574     0.65300
H930        H  0.00276296  0.43199195  0.00239191     0.10700
C931        C  0.97288189  0.45640056  0.86951323     0.63700
H932        H  0.92129536  0.38179752  0.87710593     0.08100
F933        F  0.96673108  0.25254323  0.83622847    -0.19400
F934        F  0.00712004  0.31812349  0.84142587    -0.15600
F935        F  0.96020409  0.29374573  0.79191317    -0.19100
F936        F  0.85317034  0.33786433  0.92590860    -0.22500
F937        F  0.86366138  0.30616974  0.97844092    -0.24000
F938        F  0.81466321  0.27180497  0.93255651    -0.18000
F939        F  0.49081715  0.44600041  0.83862005    -0.20400
F940        F  0.01347318  0.99301804  0.87441820    -0.21600
F941        F  0.94378370  0.46543420  0.85857523    -0.18800
F942        F  0.99527980  0.37253943  0.02858430    -0.18900
F943        F  0.99537057  0.34088785  0.97119804    -0.22700
F944        F  0.93793869  0.32081930  0.00551803    -0.24300
C945        C  0.69409623  0.07664747  0.89664769    -0.11100
C946        C  0.65597697  0.06409297  0.87992733     0.11500
C947        C  0.65234447  0.07533653  0.83918060    -0.02900
C948        C  0.68707180  0.09607650  0.81530397    -0.05700
C949        C  0.72510688  0.10832970  0.83183605    -0.16400
C950        C  0.72903371  0.09925782  0.87327079     0.02500
C951        C  0.62084947  0.04528255  0.90764404     0.12400
C952        C  0.61232508  0.06738980  0.82170748     0.63100
H953        H  0.68496377  0.10382973  0.78363047     0.12500
C954        C  0.76984660  0.11290860  0.89223974     0.55200
H955        H  0.69620352  0.06922685  0.92843506     0.08300
C956        C  0.59478659  0.00441628  0.91015941    -0.05500
C957        C  0.55836128  0.99043896  0.93137909    -0.06300
C958        C  0.54330326  0.01520325  0.94778869    -0.15900
C959        C  0.57371492  0.05790172  0.94494293    -0.01500
C960        C  0.61207113  0.07037044  0.92901759    -0.09000
C961        C  0.60641798  0.97567866  0.89173166     0.65300
H962        H  0.54946666  0.46604644  0.94136700     0.10700
C963        C  0.57027861  0.09467767  0.95019346     0.63700
H964        H  0.63438896  0.10188342  0.92772407     0.08100
F965        F  0.78837240  0.09584292  0.87116318    -0.19400
F966        F  0.76720596  0.10216397  0.93333642    -0.15600
F967        F  0.79305356  0.15388231  0.88980723    -0.19100
F968        F  0.59728601  0.08598161  0.84574543    -0.22500
F969        F  0.58517114  0.02707580  0.82088643    -0.24000
F970        F  0.61598879  0.08195730  0.78207447    -0.18000
F971        F  0.59723512  0.11990190  0.97948956    -0.20400
F972        F  0.53358317  0.08576068  0.96056668    -0.21600
F973        F  0.57855680  0.11542553  0.91333671    -0.18800
F974        F  0.58575779  0.44228273  0.90898401    -0.18900
F975        F  0.64239828  0.98284387  0.90870383    -0.22700
F976        F  0.61086013  0.98086640  0.84955611    -0.24300
C977        C  0.90523113  0.99900820  0.91937218    -0.11100
C978        C  0.92526933  0.03285742  0.89518039     0.11500
C979        C  0.96664652  0.05014828  0.88989471    -0.02900
C980        C  0.98716896  0.03566332  0.91340277    -0.05700
C981        C  0.96928809  0.00499625  0.94377996    -0.16400
C982        C  0.92528070  0.98250227  0.94136705     0.02500
C983        C  0.90262316  0.04959695  0.87464598     0.12400
C984        C  0.98935680  0.08442454  0.85978411     0.63100
H985        H  0.51603106  0.04464205  0.90011902     0.12500
C986        C  0.89492723  0.93999739  0.95547632     0.55200
H987        H  0.87281731  0.98461534  0.92035567     0.08300
C988        C  0.88171935  0.03419327  0.83702488    -0.05500
C989        C  0.86876297  0.05681744  0.81490856    -0.06300
C990        C  0.87649589  0.09397486  0.82917193    -0.15900
C991        C  0.89465401  0.10789998  0.86820565    -0.01500
C992        C  0.90688650  0.08492350  0.89075397    -0.09000
C993        C  0.87420206  0.99479830  0.81974765     0.65300
H994        H  0.85382053  0.04641330  0.78538946     0.10700
C995        C  0.90253332  0.14744065  0.88514711     0.63700
H996        H  0.92244817  0.09570672  0.91992883     0.08100
F997        F  0.87463318  0.42193137  0.92019022    -0.19400
F998        F  0.86465287  0.93992401  0.97794525    -0.15600
F999        F  0.90919689  0.92055074  0.97871071    -0.19100
F1000       F  0.99053525  0.11827436  0.87453955    -0.22500
F1001       F  0.97072874  0.07500912  0.82161154    -0.24000
F1002       F  0.52361184  0.08275442  0.84278050    -0.18000
F1003       F  0.91657268  0.15333232  0.92539254    -0.20400
F1004       F  0.86770036  0.14922139  0.88452036    -0.21600
F1005       F  0.93097597  0.17773003  0.86120392    -0.18800
F1006       F  0.83974596  0.48211131  0.78786374    -0.18900
F1007       F  0.85015103  0.96437487  0.84641365    -0.22700
F1008       F  0.91005725  0.99554806  0.81477252    -0.24300
C1009       C  0.90530078  0.31181960  0.60805963    -0.11100
C1010       C  0.93015389  0.35028978  0.62302752     0.11500
C1011       C  0.94077866  0.35564027  0.66553040    -0.02900
C1012       C  0.92336442  0.32222051  0.69181649    -0.05700
C1013       C  0.89835059  0.28373469  0.67641467    -0.16400
C1014       C  0.89249785  0.27834649  0.63324436     0.02500
C1015       C  0.94305683  0.38422170  0.59383045     0.12400
C1016       C  0.97088073  0.39605499  0.68297282     0.63100
H1017       H  0.92916619  0.32588297  0.72469741     0.12500
C1018       C  0.87793893  0.23918881  0.61129549     0.55200
H1019       H  0.89628468  0.30762374  0.57600492     0.08300
C1020       C  0.96738107  0.39049875  0.55914755    -0.05500
C1021       C  0.98109293  0.42616702  0.53650400    -0.06300
C1022       C  0.97084204  0.45546687  0.54539781    -0.15900
C1023       C  0.93479562  0.43961679  0.57115714    -0.01500
C1024       C  0.92638959  0.40826461  0.59850674    -0.09000
C1025       C  0.98118687  0.36137499  0.54751551     0.65300
H1026       H  0.49151091  0.42558172  0.50822638     0.10700
C1027       C  0.89932856  0.44716093  0.56938346     0.63700
H1028       H  0.90301637  0.39958204  0.62137592     0.08100
F1029       F  0.90957934  0.24100627  0.58971441    -0.19400
F1030       F  0.84836980  0.23329135  0.58326005    -0.15600
F1031       F  0.86363713  0.20714372  0.63777947    -0.19100
F1032       F  0.95582075  0.42152562  0.68077918    -0.22500
F1033       F  0.00601920  0.41179133  0.66081712    -0.24000
F1034       F  0.98000792  0.39359696  0.72384550    -0.18000
F1035       F  0.89982181  0.47087471  0.53780446    -0.20400
F1036       F  0.89629230  0.46266982  0.60634811    -0.21600
F1037       F  0.86403935  0.41129431  0.56467001    -0.18800
F1038       F  0.50179561  0.37144479  0.51509670    -0.18900
F1039       F  0.94952028  0.32702029  0.53151069    -0.22700
F1040       F  0.48506189  0.34424126  0.57759299    -0.24300
C1041       C  0.61644661  0.04049931  0.56140038    -0.11100
C1042       C  0.62507547  0.07362863  0.58444955     0.11500
C1043       C  0.59732452  0.08630523  0.58563189    -0.02900
C1044       C  0.56101703  0.06396845  0.56421267    -0.05700
C1045       C  0.54646778  0.02481746  0.54620669    -0.16400
C1046       C  0.57638196  0.01188676  0.55132979     0.02500
C1047       C  0.66009328  0.08985416  0.61261291     0.12400
C1048       C  0.60624631  0.12341816  0.60986430     0.63100
H1049       H  0.54329029  0.07794528  0.56508779     0.12500
C1050       C  0.56305495  0.46223568  0.55472286     0.55200
H1051       H  0.64025515  0.03352759  0.55933115     0.08300
C1052       C  0.65796277  0.07401538  0.65272839    -0.05500
C1053       C  0.69276392  0.09058425  0.67725673    -0.06300
C1054       C  0.72931167  0.12161809  0.66290595    -0.15900
C1055       C  0.73141324  0.13677003  0.62278953    -0.01500
C1056       C  0.69665613  0.12068388  0.59816288    -0.09000
C1057       C  0.62037155  0.03981189  0.67150038     0.65300
H1058       H  0.69141470  0.07900109  0.70805480     0.10700
C1059       C  0.77045172  0.16925771  0.60610088     0.63700
H1060       H  0.69774392  0.13176285  0.56722365     0.08100
F1061       F  0.53436730  0.44176835  0.58401162    -0.19400
F1062       F  0.60255442  0.96963266  0.57517708    -0.15600
F1063       F  0.55392592  0.44394053  0.51716534    -0.19100
F1064       F  0.64143015  0.15561012  0.59588334    -0.22500
F1065       F  0.61056158  0.11772995  0.65125201    -0.24000
F1066       F  0.57608197  0.13263140  0.60606888    -0.18000
F1067       F  0.79664446  0.15495150  0.60309103    -0.20400
F1068       F  0.78583805  0.20149754  0.63254930    -0.21600
F1069       F  0.76605504  0.18178809  0.56739633    -0.18800
F1070       F  0.61212843  0.05220823  0.70806842    -0.18900
F1071       F  0.60979355  0.49902620  0.64620166    -0.22700
F1072       F  0.58685197  0.02572654  0.64672662    -0.24300
C1073       C  0.96262777  0.05583274  0.60454629    -0.12500
C1074       C  0.94766593  0.07401001  0.57892171     0.11500
C1075       C  0.95155297  0.07241474  0.53604742    -0.02900
C1076       C  0.96776383  0.04977365  0.52038681    -0.05700
C1077       C  0.98153802  0.02875774  0.54500344    -0.16400
C1078       C  0.97952514  0.03363870  0.58962488     0.02500
C1079       C  0.92878403  0.09443189  0.59953721     0.12400
C1080       C  0.93866682  0.09347715  0.50532309     0.63100
H1081       H  0.96939230  0.04903392  0.48814122     0.12500
C1082       C  0.49406092  0.01258030  0.62789761     0.55200
H1083       H  0.96055361  0.05875492  0.63760284     0.08300
C1084       C  0.88734522  0.07477422  0.60866062    -0.05500
C1085       C  0.87356126  0.09239758  0.63676888    -0.06300
C1086       C  0.89937883  0.12882041  0.65617675    -0.15900
C1087       C  0.94059564  0.14973129  0.64509521    -0.01500
C1088       C  0.95441871  0.13195444  0.61677516    -0.09000
C1089       C  0.85647360  0.03438607  0.59176341     0.65300
H1090       H  0.84200499  0.07663433  0.64457131     0.10700
C1091       C  0.97051393  0.18933183  0.66445624     0.63700
H1092       H  0.98597728  0.14624824  0.60937643     0.08100
F1093       F  0.46376376  0.98979585  0.65537007    -0.19400
F1094       F  0.52357673  0.04487730  0.64928000    -0.15600
F1095       F  0.51000220  0.98993936  0.61538246    -0.19100
F1096       F  0.97140606  0.11984584  0.48230833    -0.22500
F1097       F  0.92298387  0.11469585  0.52351849    -0.24000
F1098       F  0.90975722  0.06561383  0.47931832    -0.18000
F1099       F  0.97063683  0.18538221  0.70685633    -0.20400
F1100       F  0.96040109  0.21775935  0.65434217    -0.21600
F1101       F  0.00914752  0.20286299  0.65075526    -0.18800
F1102       F  0.82417612  0.03644617  0.57598254    -0.18900
F1103       F  0.84322486  0.00685276  0.62344359    -0.22700
F1104       F  0.85224283  0.51507956  0.55811827    -0.24300
C1105       C  0.52470605  0.42390411  0.41381551    -0.11100
C1106       C  0.56610533  0.44592155  0.41709376     0.11500
C1107       C  0.58367360  0.48157188  0.43945755    -0.02900
C1108       C  0.55859912  0.49379164  0.45788298    -0.05700
C1109       C  0.51568880  0.47334303  0.45411784    -0.16400
C1110       C  0.49830223  0.43524652  0.43124224     0.02500
C1111       C  0.58919652  0.43219818  0.39179964     0.12400
C1112       C  0.62893889  0.50747915  0.44268955     0.63100
H1113       H  0.57357628  0.52198336  0.47359578     0.12500
C1114       C  0.95475233  0.40389820  0.42859478     0.55200
H1115       H  0.51354924  0.39722503  0.39546376     0.08300
C1116       C  0.59246514  0.39857588  0.40259740    -0.05500
C1117       C  0.60645991  0.38192781  0.37295131    -0.06300
C1118       C  0.61714358  0.39763515  0.33288523    -0.15900
C1119       C  0.61513616  0.43236333  0.32275058    -0.01500
C1120       C  0.60114853  0.44876837  0.35247817    -0.09000
C1121       C  0.57979267  0.37944264  0.44477419     0.65300
H1122       H  0.60825817  0.35575485  0.38063206     0.10700
C1123       C  0.62496920  0.45084223  0.28001265     0.63700
H1124       H  0.59752210  0.47384324  0.34458946     0.08100
F1125       F  0.93551381  0.39077343  0.46566901    -0.19400
F1126       F  0.94821347  0.36941764  0.40921537    -0.15600
F1127       F  0.93688608  0.41879693  0.40310314    -0.19100
F1128       F  0.64039709  0.53936218  0.46906041    -0.22500
F1129       F  0.64463496  0.52232130  0.40423347    -0.24000
F1130       F  0.64532809  0.48537352  0.45743500    -0.18000
F1131       F  0.60208069  0.42219350  0.25112118    -0.20400
F1132       F  0.66525009  0.46638201  0.27196683    -0.21600
F1133       F  0.61679749  0.48151710  0.27591846    -0.18800
F1134       F  0.59073712  0.35097373  0.45119874    -0.18900
F1135       F  0.03623177  0.35631490  0.44882638    -0.22700
F1136       F  0.59764509  0.40789555  0.47526203    -0.24300
C1137       C  0.90881903  0.48271972  0.39582289    -0.11100
C1138       C  0.87815250  0.44668570  0.40992697     0.11500
C1139       C  0.88372195  0.43079643  0.44648344    -0.02900
C1140       C  0.92135734  0.45138666  0.46650056    -0.05700
C1141       C  0.95496551  0.48677367  0.45187673    -0.16400
C1142       C  0.94429413  0.50603925  0.41861143     0.02500
C1143       C  0.84124039  0.42594791  0.38438854     0.12400
C1144       C  0.85143243  0.39017071  0.46188848     0.63100
H1145       H  0.92438055  0.43693797  0.49228449     0.12500
C1146       C  0.96258701  0.54978709  0.40461901     0.55200
H1147       H  0.90328479  0.49433097  0.36756571     0.08300
C1148       C  0.81209700  0.43775605  0.38341434    -0.05500
C1149       C  0.77968728  0.41862564  0.35575180    -0.06300
C1150       C  0.77532912  0.38798042  0.32935267    -0.15900
C1151       C  0.80387164  0.37487482  0.33222361    -0.01500
C1152       C  0.83703908  0.39538307  0.35863356    -0.09000
C1153       C  0.81591860  0.47135247  0.41037700     0.65300
H1154       H  0.75788656  0.42829904  0.35404376     0.10700
C1155       C  0.80011064  0.33946102  0.30839430     0.63700
H1156       H  0.86045743  0.38780740  0.35943596     0.08100
F1157       F  0.97979405  0.55484561  0.36627570    -0.19400
F1158       F  0.98908696  0.07975832  0.42697131    -0.15600
F1159       F  0.93237739  0.55895795  0.40039715    -0.19100
F1160       F  0.81668149  0.39087304  0.46986975    -0.22500
F1161       F  0.86285460  0.37869169  0.49737408    -0.24000
F1162       F  0.84348412  0.36142838  0.43257654    -0.18000
F1163       F  0.80355471  0.34731390  0.26658082    -0.20400
F1164       F  0.76357981  0.30595293  0.31670631    -0.21600
F1165       F  0.82964309  0.33081327  0.31931083    -0.18800
F1166       F  0.78166388  0.47430660  0.40888518    -0.18900
F1167       F  0.84765052  0.50705030  0.39707319    -0.22700
F1168       F  0.82243430  0.46508564  0.45097726    -0.24300
C1169       C  0.57064481  0.17686834  0.38892718    -0.11100
C1170       C  0.59655677  0.16168501  0.39446408     0.11500
C1171       C  0.63434306  0.18071358  0.37495858    -0.02900
C1172       C  0.64398718  0.21322736  0.34895869    -0.05700
C1173       C  0.61750831  0.22769981  0.34188276    -0.16400
C1174       C  0.58044801  0.20977948  0.36323308     0.02500
C1175       C  0.58030757  0.12316799  0.41663104     0.12400
C1176       C  0.66549927  0.16807157  0.37996082     0.63100
H1177       H  0.67247707  0.22681042  0.33308851     0.12500
C1178       C  0.55115542  0.22488496  0.35932285     0.55200
H1179       H  0.54176841  0.16163730  0.40398650     0.08300
C1180       C  0.57045250  0.11860040  0.45857500    -0.05500
C1181       C  0.54542692  0.08007774  0.47418537    -0.06300
C1182       C  0.52835594  0.04477423  0.45054359    -0.15900
C1183       C  0.54071754  0.05074878  0.40717411    -0.01500
C1184       C  0.56757071  0.08941238  0.39264120    -0.09000
C1185       C  0.58415828  0.15337953  0.48803810     0.65300
H1186       H  0.53436448  0.07929071  0.50355741     0.10700
C1187       C  0.52709241  0.01952161  0.37295809     0.63700
H1188       H  0.57685276  0.09403230  0.36064632     0.08100
F1189       F  0.52054631  0.20718139  0.38782354    -0.19400
F1190       F  0.53394394  0.21648585  0.32045807    -0.15600
F1191       F  0.57089683  0.26549836  0.36602868    -0.19100
F1192       F  0.67147381  0.15537337  0.34229433    -0.22500
F1193       F  0.65492092  0.13788996  0.40837382    -0.24000
F1194       F  0.70128425  0.20034209  0.39296199    -0.18000
F1195       F  0.49018451  0.98730521  0.37954869    -0.20400
F1196       F  0.54916333  0.50202403  0.36956811    -0.21600
F1197       F  0.52400324  0.03499426  0.33542707    -0.18800
F1198       F  0.60364430  0.14800561  0.52102869    -0.18900
F1199       F  0.55116302  0.15467004  0.50230494    -0.22700
F1200       F  0.61043220  0.18972726  0.47054027    -0.24300
C1201       C  0.53623513  0.46421584  0.11377771    -0.11100
C1202       C  0.56292705  0.45553859  0.09428447     0.11500
C1203       C  0.57548379  0.47033022  0.05434525    -0.02900
C1204       C  0.55868486  0.49110296  0.03470113    -0.05700
C1205       C  0.52553503  0.49363843  0.05009934    -0.16400
C1206       C  0.52057046  0.48617123  0.09427165     0.02500
C1207       C  0.58049823  0.43475147  0.11794847     0.12400
C1208       C  0.60642613  0.46384372  0.03236118     0.63100
H1209       H  0.57435247  0.50759026  0.00884593     0.12500
C1210       C  0.99892338  0.50074860  0.12242317     0.55200
H1211       H  0.52932246  0.45565722  0.14587263     0.08300
C1212       C  0.61352391  0.45540706  0.14520232    -0.05500
C1213       C  0.62938446  0.43410153  0.16534995    -0.06300
C1214       C  0.61161680  0.39262432  0.16170431    -0.15900
C1215       C  0.57830808  0.37187622  0.13481095    -0.01500
C1216       C  0.56362000  0.39349359  0.11296477    -0.09000
C1217       C  0.63093977  0.49941883  0.15439404     0.65300
H1218       H  0.65461967  0.44946028  0.18620754     0.10700
C1219       C  0.55905085  0.32734135  0.12843721     0.63700
H1220       H  0.53832220  0.37822782  0.09219448     0.08100
F1221       F  0.02668045  0.52335034  0.15248891    -0.19400
F1222       F  0.96740091  0.46850641  0.14120237    -0.15600
F1223       F  0.98539521  0.52407331  0.10570345    -0.19100
F1224       F  0.59149928  0.42355847  0.02698723    -0.22500
F1225       F  0.64146999  0.47948148  0.05510279    -0.24000
F1226       F  0.61586511  0.48164099  0.99404607    -0.18000
F1227       F  0.54085307  0.30749039  0.16439942    -0.20400
F1228       F  0.58796198  0.31812364  0.11735067    -0.21600
F1229       F  0.53018191  0.31378956  0.09761524    -0.18800
F1230       F  0.66340443  0.51369760  0.18106797    -0.18900
F1231       F  0.60215434  0.50537325  0.17264524    -0.22700
F1232       F  0.63764321  0.02184887  0.12040307    -0.24300
C1233       C  0.81195927  0.37579852  0.10232156    -0.11100
C1234       C  0.84834845  0.40141417  0.12270740     0.11500
C1235       C  0.84740333  0.40965374  0.16513310    -0.02900
C1236       C  0.81012822  0.39457195  0.18455918    -0.05700
C1237       C  0.77378670  0.36985457  0.16407893    -0.16400
C1238       C  0.77462260  0.35874371  0.12275106     0.02500
C1239       C  0.88507267  0.42543928  0.09710711     0.12400
C1240       C  0.88546170  0.43391428  0.19020937     0.63100
H1241       H  0.80904168  0.40225573  0.21638925     0.12500
C1242       C  0.73633217  0.33032247  0.10005539     0.55200
H1243       H  0.81288635  0.37044364  0.06973253     0.08300
C1244       C  0.90672169  0.41035908  0.07720859    -0.05500
C1245       C  0.93945296  0.43615707  0.05172466    -0.06300
C1246       C  0.94924256  0.47560582  0.03885961    -0.15900
C1247       C  0.92045201  0.48609330  0.05600069    -0.01500
C1248       C  0.89525539  0.46419731  0.08896422    -0.09000
C1249       C  0.89694688  0.36796318  0.08525131     0.65300
H1250       H  0.95886746  0.42529692  0.04441892     0.10700
C1251       C  0.90177489  0.00484195  0.04195937     0.63700
H1252       H  0.87744114  0.47489526  0.10417776     0.08100
F1253       F  0.71870272  0.29345682  0.11892992    -0.19400
F1254       F  0.74347651  0.32543332  0.05933671    -0.15600
F1255       F  0.71002313  0.34464980  0.10066770    -0.19100
F1256       F  0.87883418  0.93132764  0.23711888    -0.22500
F1257       F  0.90629133  0.47257282  0.17591842    -0.24000
F1258       F  0.90915204  0.41674466  0.18740869    -0.18000
F1259       F  0.86297422  0.49070551  0.03663626    -0.20400
F1260       F  0.91321937  0.01667979  0.00306565    -0.21600
F1261       F  0.90876080  0.03653315  0.06672014    -0.18800
F1262       F  0.92471426  0.36005529  0.06781538    -0.18900
F1263       F  0.85979851  0.34168833  0.06870554    -0.22700
F1264       F  0.89642359  0.36130272  0.12718737    -0.24300
C1265       C  0.55966049  0.14209969  0.15876686    -0.11100
C1266       C  0.55822511  0.14883713  0.11645501     0.11500
C1267       C  0.57189208  0.18828561  0.10241304    -0.02900
C1268       C  0.58771499  0.21967606  0.13114587    -0.05700
C1269       C  0.59058611  0.21316204  0.17312617    -0.16400
C1270       C  0.57580788  0.17363078  0.18752093     0.02500
C1271       C  0.54364888  0.11421554  0.08758555     0.12400
C1272       C  0.56900327  0.19751226  0.05752948     0.63100
H1273       H  0.59863913  0.24993620  0.12092711     0.12500
C1274       C  0.57608487  0.16453302  0.23307390     0.55200
H1275       H  0.54862373  0.11181465  0.16896905     0.08300
C1276       C  0.56944458  0.10182668  0.07164650    -0.05500
C1277       C  0.55405230  0.07012937  0.04314169    -0.06300
C1278       C  0.51324769  0.04894095  0.02964489    -0.15900
C1279       C  0.49225721  0.07071292  0.03788319    -0.01500
C1280       C  0.50428440  0.09590589  0.07293344    -0.09000
C1281       C  0.61258541  0.12055151  0.08653459     0.65300
H1282       H  0.57423656  0.06073233  0.03248262     0.10700
C1283       C  0.97858085  0.08981779  0.01088592     0.63700
H1284       H  0.48621674  0.10843295  0.08297059     0.08100
F1285       F  0.61502392  0.18127066  0.24741076    -0.19400
F1286       F  0.55715353  0.12401699  0.24055502    -0.15600
F1287       F  0.55625253  0.17976059  0.25499950    -0.19100
F1288       F  0.52924027  0.18305568  0.04753029    -0.22500
F1289       F  0.58495172  0.18037735  0.03243751    -0.24000
F1290       F  0.58959432  0.23802281  0.04982699    -0.18000
F1291       F  0.94829721  0.09605560  0.02452244    -0.20400
F1292       F  0.96657921  0.07080500  0.97383549    -0.21600
F1293       F  0.01093677  0.12696952  0.00279153    -0.18800
F1294       F  0.63331021  0.10519810  0.06636811    -0.18900
F1295       F  0.61316053  0.11338768  0.12824299    -0.22700
F1296       F  0.63252178  0.16114536  0.07985711    -0.24300
O1297       O  0.73675019  0.84574267  0.27932885    -0.84600
O1298       O  0.66635379  0.78319098  0.30655581    -0.81600
C1299       C  0.62939799  0.76123074  0.31301044     0.98900
O1300       O  0.60437275  0.76544043  0.29123201    -0.81700
O1301       O  0.61340915  0.84055988  0.30369867    -0.84300
C1302       C  0.62965583  0.87802812  0.30332347     1.03400
O1303       O  0.65588629  0.89799424  0.27680902    -0.77100
O1304       O  0.72011603  0.88904431  0.29839765    -0.77300
C1305       C  0.74161087  0.87329539  0.30308565     1.03400
O1306       O  0.71177420  0.82351943  0.19606558    -0.84600
O1307       O  0.64341696  0.75627798  0.22445039    -0.81600
C1308       C  0.61400803  0.75122938  0.20287472     0.98900
O1309       O  0.60184901  0.77590892  0.20408449    -0.81700
O1310       O  0.60526992  0.84854130  0.21586713    -0.84300
C1311       C  0.62923479  0.87458442  0.19058096     1.03400
O1312       O  0.66642556  0.88684920  0.19258294    -0.77100
O1313       O  0.73675298  0.88602854  0.21305330    -0.77200
C1314       C  0.73840582  0.85954705  0.19204570     1.03300
Cr1315     Cr  0.68741659  0.80457333  0.25125190     1.93700
Cr1316     Cr  0.61034720  0.80955313  0.25343682     1.93200
Cr1317     Cr  0.69247494  0.88565134  0.24535312     1.39100
O1318       O  0.66316670  0.83311632  0.24952056    -1.22300
C1319       C  0.99455880  0.50424502  0.01886978    -0.01700
C1320       C  0.49952663  0.00227064  0.47201031    -0.01700
O1321       O  0.78669441  0.66801559  0.80421563    -0.84600
O1322       O  0.85630957  0.73950293  0.79197226    -0.81600
C1323       C  0.88347884  0.73884515  0.81365341     0.98900
O1324       O  0.89642436  0.71596254  0.80430197    -0.81700
O1325       O  0.89443486  0.64912981  0.77411062    -0.84300
C1326       C  0.86844144  0.62060048  0.79550813     1.03400
O1327       O  0.83176310  0.60882631  0.79128930    -0.77100
O1328       O  0.76351370  0.61049609  0.77333980    -0.77300
C1329       C  0.76205758  0.63121291  0.80229334     1.03400
O1330       O  0.76678533  0.66275408  0.71764539    -0.84600
O1331       O  0.84037184  0.73084236  0.70399371    -0.81600
C1332       C  0.87791322  0.75209879  0.70042317     0.98900
O1333       O  0.90115693  0.74565264  0.72247634    -0.81700
O1334       O  0.89278942  0.67624479  0.69116266    -0.84300
C1335       C  0.87737928  0.63985077  0.68294873     1.03400
O1336       O  0.85037016  0.61435730  0.70596842    -0.77100
O1337       O  0.78578812  0.62392682  0.68896331    -0.77200
C1338       C  0.76233278  0.63751974  0.69034958     1.03300
Cr1339     Cr  0.81448624  0.69837889  0.75388767     1.93700
Cr1340     Cr  0.89205772  0.69480588  0.74790958     1.93200
Cr1341     Cr  0.81026155  0.61860319  0.74039590     1.39100
O1342       O  0.83900151  0.67074816  0.74752602    -1.22300
C1343       C  0.49691151  0.99265155  0.96657971    -0.01700
C1344       C  0.49997300  0.00152072  0.52678247    -0.01700
C1345       C  0.95579052  0.82265899  0.88477696    -0.11100
C1346       C  0.92898775  0.82595039  0.91121790     0.11500
C1347       C  0.88764335  0.79736313  0.90866483    -0.02900
C1348       C  0.87423974  0.76789781  0.87775910    -0.05700
C1349       C  0.90078695  0.76630993  0.84945267    -0.16400
C1350       C  0.94252827  0.79343286  0.85374598     0.02500
C1351       C  0.94356914  0.86560819  0.93061995     0.12400
C1352       C  0.85768480  0.79912365  0.93732171     0.63100
H1353       H  0.84253559  0.74682229  0.87427787     0.12500
C1354       C  0.97287031  0.79350463  0.82414980     0.55200
H1355       H  0.98712984  0.84540762  0.88657134     0.08300
C1356       C  0.96716446  0.87900776  0.96674305    -0.05500
C1357       C  0.98353336  0.91935139  0.97867414    -0.06300
C1358       C  0.98025278  0.94820691  0.95445166    -0.15900
C1359       C  0.96568475  0.93434083  0.91262300    -0.01500
C1360       C  0.94175985  0.89345939  0.90532621    -0.09000
C1361       C  0.97648700  0.85138066  0.99141402     0.65300
H1362       H  0.00224762  0.92867312  0.00518484     0.10700
C1363       C  0.97731297  0.95841042  0.87249172     0.63700
H1364       H  0.92631689  0.88329355  0.87590364     0.08100
F1365       F  0.97405166  0.75886944  0.82884631    -0.19400
F1366       F  0.01114478  0.82506993  0.83128636    -0.15600
F1367       F  0.96244086  0.79635662  0.78394988    -0.19100
F1368       F  0.85645932  0.83354039  0.93027397    -0.22500
F1369       F  0.86873618  0.79870230  0.97782878    -0.24000
F1370       F  0.81944616  0.76701798  0.93165029    -0.18000
F1371       F  0.47397654  0.92983993  0.83990659    -0.20400
F1372       F  0.01009236  0.48983172  0.86903442    -0.21600
F1373       F  0.94749350  0.96609983  0.86070847    -0.18800
F1374       F  0.99867050  0.86957310  0.02652527    -0.18900
F1375       F  0.99829373  0.83974142  0.96751887    -0.22700
F1376       F  0.94140899  0.81798644  0.00334462    -0.24300
C1377       C  0.69862831  0.58296746  0.89677011    -0.11100
C1378       C  0.66019938  0.56852248  0.87989058     0.11500
C1379       C  0.65569266  0.57706640  0.83833004    -0.02900
C1380       C  0.69008658  0.59755813  0.81414162    -0.05700
C1381       C  0.72841702  0.61202928  0.83094924    -0.16400
C1382       C  0.73319597  0.60530811  0.87289559     0.02500
C1383       C  0.62559772  0.55100440  0.90803937     0.12400
C1384       C  0.61511036  0.56665032  0.82018436     0.63100
H1385       H  0.68747629  0.60351167  0.78194686     0.12500
C1386       C  0.77446014  0.62150345  0.89199748     0.55200
H1387       H  0.70123019  0.57748758  0.92909605     0.08300
C1388       C  0.60058101  0.51036913  0.91365794    -0.05500
C1389       C  0.56472837  0.49724031  0.93556365    -0.06300
C1390       C  0.54937141  0.52240794  0.95017041    -0.15900
C1391       C  0.57982178  0.56504736  0.94617354    -0.01500
C1392       C  0.61718319  0.57699248  0.92799523    -0.09000
C1393       C  0.61287533  0.48115844  0.89807064     0.65300
H1394       H  0.54203289  0.95888106  0.93372109     0.10700
C1395       C  0.57774048  0.60231632  0.95363638     0.63700
H1396       H  0.63935360  0.60843240  0.92501351     0.08100
F1397       F  0.79499509  0.60606682  0.87173128    -0.19400
F1398       F  0.77237341  0.61170383  0.93333937    -0.15600
F1399       F  0.79562232  0.66250471  0.88875274    -0.19100
F1400       F  0.59958255  0.58644484  0.84158237    -0.22500
F1401       F  0.58880190  0.52624652  0.82274730    -0.24000
F1402       F  0.61785432  0.57751753  0.77910463    -0.18000
F1403       F  0.60584605  0.62615067  0.98285787    -0.20400
F1404       F  0.54162384  0.59406458  0.96558933    -0.21600
F1405       F  0.58565434  0.62422183  0.91757625    -0.18800
F1406       F  0.57807322  0.93630174  0.89918432    -0.18900
F1407       F  0.64980377  0.49082878  0.91458390    -0.22700
F1408       F  0.61577388  0.48290016  0.85561957    -0.24300
C1409       C  0.90662488  0.50410448  0.91673207    -0.11100
C1410       C  0.92679452  0.53498657  0.88889003     0.11500
C1411       C  0.96723160  0.54872781  0.88103034    -0.02900
C1412       C  0.98768544  0.53589721  0.90675746    -0.05700
C1413       C  0.96976096  0.50745245  0.93921754    -0.16400
C1414       C  0.92581477  0.48673794  0.93863120     0.02500
C1415       C  0.90581134  0.55350343  0.86866976     0.12400
C1416       C  0.98916664  0.57709610  0.84552160     0.63100
H1417       H  0.52249268  0.55539718  0.90489729     0.12500
C1418       C  0.89459266  0.44508194  0.95415005     0.55200
H1419       H  0.87474511  0.49236892  0.92042837     0.08300
C1420       C  0.87824593  0.53516600  0.83576884    -0.05500
C1421       C  0.86550572  0.55798228  0.81370672    -0.06300
C1422       C  0.88052845  0.59824742  0.82277740    -0.15900
C1423       C  0.90681984  0.61600594  0.85658651    -0.01500
C1424       C  0.91823440  0.59282608  0.87973660    -0.09000
C1425       C  0.86364465  0.49251091  0.82286179     0.65300
H1426       H  0.84493124  0.54504143  0.78795821     0.10700
C1427       C  0.92354494  0.65936578  0.86742360     0.63700
H1428       H  0.93906203  0.60594877  0.90526383     0.08100
F1429       F  0.87746372  0.91707247  0.92067998    -0.19400
F1430       F  0.86635975  0.44712402  0.97821372    -0.15600
F1431       F  0.90839708  0.42455629  0.97628221    -0.19100
F1432       F  0.99983493  0.61544842  0.85658467    -0.22500
F1433       F  0.96511130  0.56634874  0.81067744    -0.24000
F1434       F  0.53217067  0.59838667  0.85162487    -0.18000
F1435       F  0.94624786  0.66985393  0.90328476    -0.20400
F1436       F  0.89253223  0.66695214  0.87295081    -0.21600
F1437       F  0.94786479  0.68269147  0.83583184    -0.18800
F1438       F  0.85512658  0.98656426  0.78175881    -0.18900
F1439       F  0.84124952  0.46681093  0.85407259    -0.22700
F1440       F  0.89590273  0.48759210  0.81437725    -0.24300
C1441       C  0.89932103  0.81681399  0.60555165    -0.11100
C1442       C  0.92627218  0.85445192  0.62120931     0.11500
C1443       C  0.93845509  0.85825916  0.66313070    -0.02900
C1444       C  0.92126655  0.82403759  0.68821657    -0.05700
C1445       C  0.89525142  0.78621781  0.67180970    -0.16400
C1446       C  0.88722042  0.78241717  0.62892456     0.02500
C1447       C  0.94103523  0.88898762  0.59276559     0.12400
C1448       C  0.97011362  0.89778128  0.68101629     0.63100
H1449       H  0.92842659  0.82645367  0.72081234     0.12500
C1450       C  0.87091545  0.74403537  0.60506563     0.55200
H1451       H  0.88904190  0.81399008  0.57395835     0.08300
C1452       C  0.96411758  0.89338601  0.55755809    -0.05500
C1453       C  0.97878237  0.92873296  0.53433847    -0.06300
C1454       C  0.97217318  0.96026617  0.54416405    -0.15900
C1455       C  0.93675271  0.94668114  0.57039282    -0.01500
C1456       C  0.92688077  0.91516096  0.59801656    -0.09000
C1457       C  0.97592852  0.86265974  0.54602937     0.65300
H1458       H  0.50053624  0.93098885  0.50878715     0.10700
C1459       C  0.90256616  0.95604657  0.56718698     0.63700
H1460       H  0.90396912  0.90793074  0.62108144     0.08100
F1461       F  0.90016809  0.74712100  0.57842444    -0.19400
F1462       F  0.83835355  0.73824215  0.58178552    -0.15600
F1463       F  0.86019359  0.71146500  0.63004885    -0.19100
F1464       F  0.95680494  0.92471700  0.68021710    -0.22500
F1465       F  0.00479763  0.91249624  0.65820961    -0.24000
F1466       F  0.97936978  0.89402983  0.72149454    -0.18000
F1467       F  0.90455530  0.97875007  0.53394323    -0.20400
F1468       F  0.90021658  0.97395427  0.60288085    -0.21600
F1469       F  0.86641111  0.92086809  0.56332193    -0.18800
F1470       F  0.51133189  0.87745291  0.51291812    -0.18900
F1471       F  0.94305630  0.82834502  0.53166980    -0.22700
F1472       F  0.50504543  0.85899847  0.57902133    -0.24300
C1473       C  0.61108675  0.53201368  0.56522798    -0.11100
C1474       C  0.62059461  0.56584230  0.58742844     0.11500
C1475       C  0.59426436  0.58026448  0.58683651    -0.02900
C1476       C  0.55849739  0.55909372  0.56437100    -0.05700
C1477       C  0.54285219  0.51987626  0.54611045    -0.16400
C1478       C  0.57130818  0.50511035  0.55213088     0.02500
C1479       C  0.65675899  0.58339062  0.61414541     0.12400
C1480       C  0.60449587  0.61873083  0.60926095     0.63100
H1481       H  0.54203221  0.57434934  0.56439406     0.12500
C1482       C  0.56970246  0.96995133  0.55791747     0.55200
H1483       H  0.63430176  0.52417585  0.56441454     0.08300
C1484       C  0.65656255  0.56796701  0.65396153    -0.05500
C1485       C  0.69165171  0.58702523  0.67812742    -0.06300
C1486       C  0.72655878  0.62005432  0.66332257    -0.15900
C1487       C  0.72674572  0.63460038  0.62334793    -0.01500
C1488       C  0.69166881  0.61615305  0.59932173    -0.09000
C1489       C  0.61960819  0.53160541  0.67080394     0.65300
H1490       H  0.69232118  0.57602798  0.70868508     0.10700
C1491       C  0.76428252  0.66876841  0.60604720     0.63700
H1492       H  0.69121147  0.62690028  0.56857800     0.08100
F1493       F  0.54008925  0.94998556  0.58632347    -0.19400
F1494       F  0.59568321  0.45931175  0.56813385    -0.15600
F1495       F  0.56305486  0.94999004  0.52143804    -0.19100
F1496       F  0.63721383  0.65032020  0.59072983    -0.22500
F1497       F  0.61363434  0.61665696  0.65015269    -0.24000
F1498       F  0.57316878  0.62642418  0.60863787    -0.18000
F1499       F  0.79257320  0.65717465  0.60245933    -0.20400
F1500       F  0.77801729  0.70098136  0.63237036    -0.21600
F1501       F  0.75804443  0.68012909  0.56746912    -0.18800
F1502       F  0.62571266  0.52249319  0.71052351    -0.18900
F1503       F  0.62690372  0.00861553  0.67967804    -0.22700
F1504       F  0.58771413  0.53826168  0.67156892    -0.24300
C1505       C  0.95334999  0.54745235  0.60519689    -0.12500
C1506       C  0.93701751  0.56365780  0.57859035     0.11500
C1507       C  0.94156476  0.56182111  0.53596750    -0.02900
C1508       C  0.96140985  0.54232981  0.52150120    -0.05700
C1509       C  0.97636591  0.52281634  0.54687823    -0.16400
C1510       C  0.97256639  0.52705429  0.59131649     0.02500
C1511       C  0.91873350  0.58518967  0.59761755     0.12400
C1512       C  0.92606843  0.57968048  0.50408282     0.63100
H1513       H  0.96520583  0.54340248  0.48949375     0.12500
C1514       C  0.49091381  0.51006205  0.62730517     0.55200
H1515       H  0.95087732  0.55084314  0.63808696     0.08300
C1516       C  0.87816249  0.56561631  0.60966150    -0.05500
C1517       C  0.86515500  0.58616470  0.63461058    -0.06300
C1518       C  0.89139482  0.62526925  0.64813668    -0.15900
C1519       C  0.93074077  0.64637698  0.63166580    -0.01500
C1520       C  0.94381016  0.62554065  0.60684503    -0.09000
C1521       C  0.84944835  0.52232455  0.59930556     0.65300
H1522       H  0.83469255  0.57067502  0.64593111     0.10700
C1523       C  0.95943156  0.68992133  0.64111358     0.63700
H1524       H  0.97442064  0.64001043  0.59597335     0.08100
F1525       F  0.45984493  0.48752007  0.65406195    -0.19400
F1526       F  0.52036480  0.54177803  0.64939582    -0.15600
F1527       F  0.50645954  0.48684837  0.61521927    -0.19100
F1528       F  0.95803125  0.60886939  0.48226142    -0.22500
F1529       F  0.90528339  0.59656431  0.52076833    -0.24000
F1530       F  0.90050739  0.55011983  0.47718373    -0.18000
F1531       F  0.96807320  0.69486137  0.68285045    -0.20400
F1532       F  0.94233745  0.71228152  0.62918361    -0.21600
F1533       F  0.99522414  0.70439761  0.62015280    -0.18800
F1534       F  0.81005018  0.51168041  0.60692196    -0.18900
F1535       F  0.85867805  0.49870921  0.62336215    -0.22700
F1536       F  0.87093817  0.02114031  0.56064806    -0.24300
C1537       C  0.52776696  0.92762646  0.41322793    -0.11100
C1538       C  0.56895942  0.94876127  0.41758326     0.11500
C1539       C  0.58679764  0.98395143  0.44059112    -0.02900
C1540       C  0.56201307  0.99675960  0.45849038    -0.05700
C1541       C  0.51917203  0.97678583  0.45436917    -0.16400
C1542       C  0.50163268  0.93879248  0.43126512     0.02500
C1543       C  0.59161124  0.93464969  0.39251096     0.12400
C1544       C  0.63203767  0.00830905  0.44554344     0.63100
H1545       H  0.57721883  0.02507548  0.47389051     0.12500
C1546       C  0.95568352  0.90640094  0.42352042     0.55200
H1547       H  0.51655744  0.90163485  0.39376576     0.08300
C1548       C  0.59317031  0.90001900  0.40290571    -0.05500
C1549       C  0.60704696  0.88330170  0.37343050    -0.06300
C1550       C  0.61778901  0.89906805  0.33348971    -0.15900
C1551       C  0.61575057  0.93365375  0.32301813    -0.01500
C1552       C  0.60341714  0.95110628  0.35312960    -0.09000
C1553       C  0.57742600  0.87900885  0.44375497     0.65300
H1554       H  0.60815131  0.85671706  0.38093222     0.10700
C1555       C  0.62323891  0.95047681  0.27951928     0.63700
H1556       H  0.60048697  0.97662129  0.34537989     0.08100
F1557       F  0.93693062  0.88985732  0.46018040    -0.19400
F1558       F  0.95017612  0.87414233  0.40035088    -0.15600
F1559       F  0.93595316  0.92148569  0.40131762    -0.19100
F1560       F  0.64391177  0.04142176  0.47014608    -0.22500
F1561       F  0.64975849  0.02123921  0.40743866    -0.24000
F1562       F  0.64594247  0.98522060  0.46347969    -0.18000
F1563       F  0.59975943  0.92047624  0.25205535    -0.20400
F1564       F  0.66324692  0.96678703  0.26968326    -0.21600
F1565       F  0.61355482  0.98007631  0.27502699    -0.18800
F1566       F  0.58797599  0.85031903  0.45066928    -0.18900
F1567       F  0.03723923  0.86001694  0.44755354    -0.22700
F1568       F  0.59271718  0.90598258  0.47583195    -0.24300
C1569       C  0.90399521  0.98338817  0.40115366    -0.11100
C1570       C  0.87493945  0.94710334  0.41652898     0.11500
C1571       C  0.88364271  0.93118174  0.45103377    -0.02900
C1572       C  0.92284364  0.95179657  0.46714507    -0.05700
C1573       C  0.95465123  0.98828282  0.45194404    -0.16400
C1574       C  0.94129791  0.00711050  0.42073423     0.02500
C1575       C  0.83762098  0.92502710  0.39225341     0.12400
C1576       C  0.85264693  0.89100363  0.46887942     0.63100
H1577       H  0.92821094  0.93621481  0.48992662     0.12500
C1578       C  0.95964858  0.05004855  0.40400663     0.55200
H1579       H  0.89618762  0.99429745  0.37377771     0.08300
C1580       C  0.80773455  0.93577657  0.39162551    -0.05500
C1581       C  0.77636239  0.91731854  0.36277005    -0.06300
C1582       C  0.77390779  0.88839698  0.33498210    -0.15900
C1583       C  0.80291895  0.87588426  0.33786590    -0.01500
C1584       C  0.83499690  0.89579084  0.36550128    -0.09000
C1585       C  0.80960283  0.96732206  0.42052496     0.65300
H1586       H  0.75392011  0.92616828  0.36122590     0.10700
C1587       C  0.80102486  0.84194907  0.31266137     0.63700
H1588       H  0.85905281  0.88911439  0.36619691     0.08100
F1589       F  0.97337237  0.05188169  0.36438473    -0.19400
F1590       F  0.98931682  0.57825011  0.43066957    -0.15600
F1591       F  0.93009403  0.06029529  0.40152217    -0.19100
F1592       F  0.81984432  0.89296953  0.48243392    -0.22500
F1593       F  0.86763770  0.87955950  0.50170770    -0.24000
F1594       F  0.84019907  0.86153602  0.43942068    -0.18000
F1595       F  0.80513708  0.85126592  0.27122142    -0.20400
F1596       F  0.76495920  0.80740739  0.31948025    -0.21600
F1597       F  0.83124995  0.83421841  0.32332037    -0.18800
F1598       F  0.77533225  0.97016668  0.41789327    -0.18900
F1599       F  0.84195717  0.00401966  0.41073257    -0.22700
F1600       F  0.81360976  0.95810636  0.46082398    -0.24300
C1601       C  0.56546402  0.67450394  0.38591125    -0.11100
C1602       C  0.59061914  0.65860220  0.39232638     0.11500
C1603       C  0.62921837  0.67768879  0.37468735    -0.02900
C1604       C  0.64123170  0.71216404  0.35075654    -0.05700
C1605       C  0.61568910  0.72772283  0.34322523    -0.16400
C1606       C  0.57743057  0.70913177  0.36228633     0.02500
C1607       C  0.57358084  0.61956897  0.41393873     0.12400
C1608       C  0.65703231  0.66091104  0.37998832     0.63100
H1609       H  0.67024856  0.72612611  0.33604057     0.12500
C1610       C  0.54921621  0.72555376  0.35838106     0.55200
H1611       H  0.53564554  0.65876955  0.39889493     0.08300
C1612       C  0.56658175  0.61526121  0.45649523    -0.05500
C1613       C  0.54299799  0.57667955  0.47284942    -0.06300
C1614       C  0.52465004  0.54118767  0.44940820    -0.15900
C1615       C  0.53496299  0.54684680  0.40542950    -0.01500
C1616       C  0.55924288  0.58571226  0.38978169    -0.09000
C1617       C  0.58260739  0.65152576  0.48437817     0.65300
H1618       H  0.53403314  0.57553593  0.50300552     0.10700
C1619       C  0.52182304  0.51478731  0.37206138     0.63700
H1620       H  0.56600878  0.59041449  0.35719885     0.08100
F1621       F  0.51758865  0.70737784  0.38568021    -0.19400
F1622       F  0.53335195  0.71923292  0.31895990    -0.15600
F1623       F  0.56967508  0.76586093  0.36694626    -0.19100
F1624       F  0.64163472  0.62516314  0.35925391    -0.22500
F1625       F  0.66104135  0.65469496  0.42130419    -0.24000
F1626       F  0.69485287  0.68643240  0.36461394    -0.18000
F1627       F  0.48451578  0.48319266  0.37848618    -0.20400
F1628       F  0.55492502  0.00753858  0.36832535    -0.21600
F1629       F  0.51991398  0.52915992  0.33343570    -0.18800
F1630       F  0.57370526  0.64115221  0.52531116    -0.18900
F1631       F  0.56608447  0.67459853  0.47350535    -0.22700
F1632       F  0.62378954  0.67401955  0.48086894    -0.24300
C1633       C  0.53468330  0.96133124  0.11197121    -0.11100
C1634       C  0.56254010  0.95412448  0.09278351     0.11500
C1635       C  0.57503427  0.96943647  0.05288690    -0.02900
C1636       C  0.55657653  0.98851069  0.03276804    -0.05700
C1637       C  0.52268682  0.98977718  0.04828989    -0.16400
C1638       C  0.51827275  0.98261483  0.09245706     0.02500
C1639       C  0.58121229  0.93442898  0.11684387     0.12400
C1640       C  0.60800619  0.96571625  0.03163593     0.63100
H1641       H  0.57120218  0.00427043  0.00608065     0.12500
C1642       C  0.99858700  0.99416235  0.12685443     0.55200
H1643       H  0.52771700  0.95256783  0.14400845     0.08300
C1644       C  0.61313661  0.95569879  0.14520246    -0.05500
C1645       C  0.62999022  0.93546656  0.16585767    -0.06300
C1646       C  0.61394462  0.89421266  0.16188439    -0.15900
C1647       C  0.58159967  0.87278947  0.13404641    -0.01500
C1648       C  0.56618206  0.89345795  0.11155813    -0.09000
C1649       C  0.62768210  0.99893315  0.15572026     0.65300
H1650       H  0.65432521  0.95134444  0.18758792     0.10700
C1651       C  0.56407258  0.82847695  0.12746572     0.63700
H1652       H  0.54157063  0.87755278  0.09020224     0.08100
F1653       F  0.02661524  0.01543332  0.15723595    -0.19400
F1654       F  0.96676149  0.96176143  0.14503261    -0.15600
F1655       F  0.98596421  0.01873164  0.11142820    -0.19100
F1656       F  0.59632063  0.92600617  0.02720344    -0.22500
F1657       F  0.64289294  0.98426260  0.05472345    -0.24000
F1658       F  0.61642827  0.98281940  0.99289512    -0.18000
F1659       F  0.54575208  0.80800711  0.16311777    -0.20400
F1660       F  0.59426607  0.82089480  0.11701901    -0.21600
F1661       F  0.53572037  0.81412587  0.09613609    -0.18800
F1662       F  0.66110305  0.01487023  0.18118617    -0.18900
F1663       F  0.59771259  0.00149635  0.17601998    -0.22700
F1664       F  0.64357002  0.52150039  0.11853681    -0.24300
C1665       C  0.81312118  0.87696644  0.10645981    -0.11100
C1666       C  0.84971198  0.90023367  0.12758003     0.11500
C1667       C  0.84890823  0.90800977  0.17015285    -0.02900
C1668       C  0.81173024  0.89437291  0.18920061    -0.05700
C1669       C  0.77534629  0.87117130  0.16827394    -0.16400
C1670       C  0.77577826  0.86117714  0.12651616     0.02500
C1671       C  0.88675914  0.92344797  0.10244943     0.12400
C1672       C  0.88694381  0.93027945  0.19576343     0.63100
H1673       H  0.81075741  0.90208643  0.22102275     0.12500
C1674       C  0.73706741  0.83570429  0.10298772     0.55200
H1675       H  0.81399277  0.87257118  0.07362712     0.08300
C1676       C  0.90613274  0.90696571  0.08051040    -0.05500
C1677       C  0.93843221  0.93209654  0.05430692    -0.06300
C1678       C  0.94893902  0.97187973  0.04234450    -0.15900
C1679       C  0.92148904  0.98320125  0.06077797    -0.01500
C1680       C  0.89862944  0.96287715  0.09550382    -0.09000
C1681       C  0.89507166  0.86405832  0.08757452     0.65300
H1682       H  0.95689353  0.92046845  0.04573153     0.10700
C1683       C  0.90457070  0.51184232  0.03889556     0.63700
H1684       H  0.88202071  0.97449135  0.11155017     0.08100
F1685       F  0.71704677  0.79801731  0.12001272    -0.19400
F1686       F  0.74394543  0.83201367  0.06185656    -0.15600
F1687       F  0.71296650  0.85254207  0.10507385    -0.19100
F1688       F  0.87749812  0.43525626  0.23155481    -0.22500
F1689       F  0.90955034  0.96910077  0.18234832    -0.24000
F1690       F  0.90892946  0.91130734  0.19261914    -0.18000
F1691       F  0.86050245  0.97985204  0.03989117    -0.20400
F1692       F  0.91647503  0.52359953  0.00012310    -0.21600
F1693       F  0.91495155  0.54370043  0.06482536    -0.18800
F1694       F  0.91929659  0.85411052  0.06553644    -0.18900
F1695       F  0.85593727  0.83878584  0.07532574    -0.22700
F1696       F  0.89898059  0.85802297  0.12895989    -0.24300
C1697       C  0.56524679  0.64576529  0.16063274    -0.11100
C1698       C  0.56534322  0.65309161  0.11829195     0.11500
C1699       C  0.57987807  0.69269600  0.10426302    -0.02900
C1700       C  0.59397117  0.72354505  0.13331455    -0.05700
C1701       C  0.59490470  0.71638260  0.17535609    -0.16400
C1702       C  0.58019526  0.67688995  0.18964741     0.02500
C1703       C  0.55012001  0.61858631  0.08966557     0.12400
C1704       C  0.57885234  0.70294840  0.05933863     0.63100
H1705       H  0.60498399  0.75389265  0.12330816     0.12500
C1706       C  0.57925577  0.66744673  0.23527576     0.55200
H1707       H  0.55380009  0.61536081  0.17066621     0.08300
C1708       C  0.57539696  0.60596961  0.07288425    -0.05500
C1709       C  0.55900333  0.57415122  0.04466374    -0.06300
C1710       C  0.51795536  0.55367993  0.03199270    -0.15900
C1711       C  0.49754648  0.57578399  0.04113740    -0.01500
C1712       C  0.51021868  0.60017370  0.07665029    -0.09000
C1713       C  0.61901888  0.62471193  0.08630664     0.65300
H1714       H  0.57855928  0.56423072  0.03336343     0.10700
C1715       C  0.98150985  0.59514213  0.00405755     0.63700
H1716       H  0.49247298  0.61270239  0.08774682     0.08100
F1717       F  0.61781289  0.68395465  0.25069417    -0.19400
F1718       F  0.56003525  0.62688439  0.24249255    -0.15600
F1719       F  0.55895170  0.68261127  0.25644773    -0.19100
F1720       F  0.54024666  0.69340598  0.04918434    -0.22500
F1721       F  0.59121169  0.68268807  0.03412443    -0.24000
F1722       F  0.60390412  0.74315316  0.05193551    -0.18000
F1723       F  0.95201632  0.60265989  0.01758150    -0.20400
F1724       F  0.96866177  0.57572050  0.96705195    -0.21600
F1725       F  0.01480891  0.63159988  0.99563008    -0.18800
F1726       F  0.63840575  0.60758199  0.06678499    -0.18900
F1727       F  0.62109163  0.61986854  0.12832368    -0.22700
F1728       F  0.63937918  0.66486207  0.07721182    -0.24300
loop_ 
_geom_bond_atom_site_label_1 
_geom_bond_atom_site_label_2 
_geom_bond_distance 
_geom_bond_site_symmetry_2 
_ccdc_geom_bond_type 
O1          Cr19   1.996       .  S
O1            C9   1.260       .  A
O2          Cr19   1.970       .  S
O2            C3   1.258       .  A
C3            O4   1.269       .  A
C3          C309   1.494       .  S
O4          Cr20   2.024       .  S
O5          Cr20   1.998       .  S
O5            C6   1.262       .  A
C6            O7   1.262       .  A
C6          C254   1.499       .  S
O7          Cr21   2.006       .  S
O8          Cr21   1.981       .  S
O8            C9   1.262       .  A
C9          C286   1.491       .  S
O10         Cr19   1.988       .  S
O10          C18   1.262       .  A
O11         Cr19   2.002       .  S
O11          C12   1.262       .  A
C12          O13   1.263       .  A
C12         C405   1.478       .  S
O13         Cr20   1.990       .  S
O14         Cr20   2.032       .  S
O14          C15   1.274       .  A
C15          O16   1.266       .  A
C15         C350   1.495       .  S
O16         Cr21   1.985       .  S
O17         Cr21   2.017       .  S
O17          C18   1.269       .  A
C18         C373   1.490       .  S
Cr19         O22   1.778       .  S
Cr20         O22   1.773       .  S
Cr21         O22   1.773       .  S
C23        C1343   1.770   1_544  S
C23        C1637   1.650   1_545  S
C23         C814   1.660   1_545  S
C23        C1278   1.640       .  S
C24          C48   1.777       .  S
C24         C245   1.634   1_655  S
C24        C1141   1.635       .  S
C24         C750   1.616   1_655  S
O25         Cr43   1.992       .  S
O25          C33   1.263       .  A
O26         Cr43   2.011       .  S
O26          C27   1.266       .  A
C27          O28   1.258       .  A
C27          C53   1.483       .  S
O28         Cr44   1.978       .  S
O29         Cr44   2.006       .  S
O29          C30   1.266       .  A
C30          O31   1.256       .  A
C30         C126   1.463       .  S
O31         Cr45   1.961       .  S
O32         Cr45   1.993       .  S
O32          C33   1.262       .  A
C33          C85   1.468       .  S
O34         Cr43   2.015       .  S
O34          C42   1.266       .  A
O35         Cr43   1.985       .  S
O35          C36   1.263       .  A
C36          O37   1.265       .  A
C36         C149   1.474       .  S
O37         Cr44   2.006       .  S
O38         Cr44   1.981       .  S
O38          C39   1.258       .  A
C39          O40   1.263       .  A
C39         C222   1.491       .  S
O40         Cr45   1.995       .  S
O41         Cr45   1.979       .  S
O41          C42   1.260       .  A
C42         C190   1.474       .  S
Cr43         O46   1.769       .  S
Cr44         O46   1.774       .  S
Cr45         O46   1.772       .  S
C47        C1319   1.775   1_556  S
C47         C926   1.617       .  S
C47         C526   1.670   1_655  S
C47        C1413   1.603       .  S
C48        C1022   1.628       .  S
C48         C613   1.672   1_655  S
C48        C1509   1.611       .  S
C49          C50   1.403       .  A
C49          C54   1.407       .  A
C49          H59   1.083       .  S
C50          C55   1.487       .  S
C50          C51   1.416       .  A
C51          C56   1.518       .  S
C51          C52   1.409       .  A
C52          C53   1.404       .  A
C52          H57   1.083       .  S
C53          C54   1.420       .  A
C54          C58   1.520       .  S
C55          C60   1.407       .  A
C55          C64   1.387       .  A
C56          F72   1.380       .  S
C56          F73   1.380       .  S
C56          F74   1.384       .  S
C58          F69   1.380       .  S
C58          F70   1.385       .  S
C58          F71   1.383       .  S
C60          C65   1.516       .  S
C60          C61   1.415       .  A
C61          C62   1.420       .  A
C61          H66   1.058   1_556  S
C62         C911   1.611       .  S
C62          C63   1.463       .  A
C63          C67   1.534       .  S
C63          C64   1.401       .  A
C64          H68   1.086       .  S
C65          F78   1.384   1_556  S
C65          F79   1.382       .  S
C65          F80   1.381       .  S
C67          F77   1.379       .  S
C67         F939   1.387       .  S
C67         F508   1.368       .  S
F75         C931   1.388       .  S
F76         C499   1.370       .  S
C81          C82   1.402       .  A
C81          C86   1.408       .  A
C81          H91   1.083       .  S
C82          C87   1.479       .  S
C82          C83   1.418       .  A
C83          C88   1.521       .  S
C83          C84   1.401       .  A
C84          C85   1.399       .  A
C84          H89   1.084       .  S
C85          C86   1.415       .  A
C86          C90   1.515       .  S
C87          C92   1.391       .  A
C87          C96   1.373       .  A
C88         F104   1.381       .  S
C88         F105   1.380       .  S
C88         F106   1.385       .  S
C90         F101   1.381       .  S
C90         F102   1.385       .  S
C90         F103   1.383       .  S
C92          C97   1.523   1_545  S
C92          C93   1.409   1_545  A
C93          C94   1.457   1_565  A
C93         H530   1.064       .  S
C94         C479   1.667   1_445  S
C94          C95   1.479       .  A
C95          C99   1.512       .  S
C95          C96   1.408       .  A
C96         H100   1.089       .  S
C97         F111   1.383       .  S
C97         F112   1.381       .  S
C97         F542   1.385       .  S
H98         C525   1.066       .  S
C99         F107   1.383       .  S
C99         F108   1.326       .  S
C99         F109   1.386       .  S
F110        C529   1.384       .  S
C113        C114   1.385   1_565  A
C113        C118   1.414       .  A
C113        H123   1.085       .  S
C114        C119   1.476       .  S
C114        C115   1.399       .  A
C115        C120   1.525       .  S
C115        C116   1.401       .  A
C116        C117   1.429       .  A
C116        H985   1.063       .  S
C117       C1343   1.604   1_545  S
C117        C118   1.470   1_545  A
C118        C122   1.540       .  S
C119        C124   1.415       .  A
C119        C128   1.403       .  A
C120        F136   1.381       .  S
C120        F137   1.383       .  S
C120       F1002   1.383       .  S
H121        C980   1.059   1_455  S
C122        F134   1.381       .  S
C122        F135   1.361       .  S
C122        F565   1.385       .  S
C124        C129   1.519   1_545  S
C124        C125   1.403       .  A
C125        C126   1.401       .  A
C125        H130   1.084       .  S
C126        C127   1.411       .  A
C127        C131   1.515       .  S
C127        C128   1.402       .  A
C128        H132   1.083       .  S
C129        F143   1.382       .  S
C129        F144   1.381       .  S
C129        F574   1.385       .  S
C131        F139   1.385       .  S
C131        F140   1.383       .  S
C131        F141   1.380       .  S
F133        C554   1.384       .  S
F138        C984   1.382   1_455  S
F142        C561   1.385       .  S
C145        C146   1.399       .  A
C145        C150   1.398       .  A
C145        H155   1.078       .  S
C146        C151   1.493       .  S
C146        C147   1.423       .  A
C147        C152   1.518       .  S
C147        C148   1.410       .  A
C148        C149   1.402       .  A
C148        H153   1.084       .  S
C149        C150   1.413       .  A
C150        C154   1.513       .  S
C151        C156   1.414       .  A
C151        C160   1.388       .  A
C152        F168   1.380       .  S
C152        F169   1.382       .  S
C152        F170   1.385       .  S
C154        F165   1.383       .  S
C154        F166   1.380       .  S
C154        F167   1.380       .  S
C156        C161   1.527       .  S
C156        C157   1.414       .  A
C157        C158   1.408       .  A
C157       H1026   1.044       .  S
C158        C912   1.628       .  S
C158        C159   1.470       .  A
C159        C163   1.538       .  S
C159        C160   1.406       .  A
C160        H164   1.085       .  S
C161        F175   1.380       .  S
C161       F1038   1.379       .  S
C161       F1040   1.383       .  S
H162       C1021   1.046   1_455  S
C163        F171   1.369       .  S
C163        F172   1.381       .  S
C163        F173   1.384       .  S
F174       C1025   1.380   1_455  S
F176       C1025   1.383       .  S
C177        C178   1.380       .  A
C177        C182   1.417       .  A
C177        H187   1.083       .  S
C178        C183   1.483       .  S
C178        C179   1.387       .  A
C179        C184   1.528       .  S
C179        C180   1.404       .  A
C180        C181   1.458       .  A
C180        H185   1.068       .  S
C181        C480   1.675       .  S
C181        C182   1.485       .  A
C182        C618   1.535   1_545  S
C183        C188   1.421       .  A
C183        C192   1.398       .  A
C184        F200   1.382       .  S
C184        F201   1.382       .  S
C184        F202   1.385       .  S
C186        C614   1.533       .  S
C186        F197   1.369       .  S
C186        F199   1.373       .  S
C186        F630   1.390       .  S
C188        C193   1.520       .  S
C188        C189   1.406       .  A
C189        C190   1.399       .  A
C189        H194   1.084       .  S
C190        C191   1.411       .  A
C191        C195   1.504       .  S
C191        C192   1.405       .  A
C192        H196   1.083       .  S
C193        F206   1.385       .  S
C193        F208   1.379       .  S
C193        F639   1.380       .  S
C195        F203   1.382       .  S
C195        F204   1.383       .  S
C195        F205   1.385       .  S
F198        C618   1.388       .  S
F207        C625   1.383       .  S
C209        C210   1.388       .  A
C209        C214   1.408       .  A
C209        H219   1.086       .  S
C210        C215   1.481       .  S
C210        C211   1.404       .  A
C211        C216   1.521       .  S
C211        C212   1.408       .  A
C212        C213   1.419       .  A
C212        H217   1.048       .  S
C213       C1344   1.611       .  S
C213        C214   1.468       .  A
C214       C1082   1.535       .  S
C215        C220   1.415       .  A
C215        C224   1.402       .  A
C216        F232   1.382       .  S
C216        F233   1.381       .  S
C216        F234   1.383       .  S
C218       C1078   1.536       .  S
C218        F229   1.384   1_545  S
C218        F230   1.383   1_655  S
C218        F231   1.371   1_645  S
C220        C225   1.519       .  S
C220        C221   1.400       .  A
C221        C222   1.407       .  A
C221        H226   1.085       .  S
C222        C223   1.424       .  A
C223        C227   1.520       .  S
C223        C224   1.410       .  A
C224        H228   1.083       .  S
C225        F238   1.384       .  S
C225        F239   1.383   1_545  S
C225        F672   1.378       .  S
C227        F235   1.384       .  S
C227        F236   1.383       .  S
C227        F237   1.385       .  S
F240        C657   1.376       .  S
C241        C242   1.383       .  A
C241        C246   1.418   1_455  A
C241        H251   1.082       .  S
C242        C247   1.500       .  S
C242        C243   1.403       .  A
C243        C248   1.520       .  S
C243        C244   1.415       .  A
C244        C245   1.435       .  A
C244        H249   1.075       .  S
C245        C246   1.482   1_455  A
C246       C1114   1.537       .  S
C247        C252   1.419       .  A
C247        C256   1.401       .  A
C248        F264   1.384       .  S
C248        F265   1.382       .  S
C248        F266   1.381       .  S
C250       C1110   1.547       .  S
C250        F261   1.374       .  S
C250        F262   1.386       .  S
C250        F263   1.372       .  S
C252        C257   1.517       .  S
C252        C253   1.415       .  A
C253        C254   1.408       .  A
C253        H258   1.083       .  S
C254        C255   1.424       .  A
C255        C259   1.520       .  S
C255        C256   1.408       .  A
C256        H260   1.081       .  S
C257        F270   1.385       .  S
C257        F272   1.381       .  S
C257       F1135   1.381       .  S
C259        F267   1.382       .  S
C259        F268   1.382       .  S
C259        F269   1.385       .  S
F271       C1121   1.381       .  S
C273        C274   1.381       .  A
C273        C278   1.407       .  A
C273        H283   1.087       .  S
C274        C279   1.478       .  S
C274        C275   1.397       .  A
C275        C280   1.525       .  S
C275        C276   1.408       .  A
C276        C277   1.420       .  A
C276        H281   1.040       .  S
C277        C888   1.630       .  S
C277        C278   1.482       .  A
C278        C282   1.548       .  S
C279        C284   1.412       .  A
C279        C288   1.397       .  A
C280        F296   1.382       .  S
C280        F297   1.383       .  S
C280        F298   1.380       .  S
C282        F293   1.382       .  S
C282        F295   1.386       .  S
C282        F726   1.361       .  S
C284        C289   1.520       .  S
C284        C285   1.404       .  A
C285        C286   1.410       .  A
C285        H290   1.082       .  S
C286        C287   1.429       .  A
C287        C291   1.523       .  S
C287        C288   1.403       .  A
C288        H292   1.083       .  S
C289        F302   1.384       .  S
C289        F303   1.381       .  S
C289        F304   1.382       .  S
C291        F299   1.382       .  S
C291        F300   1.384       .  S
C291        F301   1.385       .  S
F294        C714   1.362       .  S
C305        C306   1.404       .  A
C305        C310   1.409       .  A
C305        H315   1.083       .  S
C306        C311   1.489       .  S
C306        C307   1.412       .  A
C307        C312   1.519       .  S
C307        C308   1.408       .  A
C308        C309   1.412       .  A
C308        H313   1.083       .  S
C309        C310   1.420       .  A
C310        C314   1.518       .  S
C311        C316   1.401       .  A
C311        C320   1.389       .  A
C312        F328   1.382       .  S
C312        F329   1.384       .  S
C312        F330   1.384       .  S
C314        F325   1.385       .  S
C314        F326   1.382       .  S
C314        F327   1.384       .  S
C316        C321   1.518       .  S
C316        C317   1.406       .  A
C317        C318   1.412       .  A
C317        H322   1.035       .  S
C318        C456   1.618   1_455  S
C318        C319   1.470       .  A
C319        C323   1.532       .  S
C319        C320   1.415       .  A
C320        H324   1.083       .  S
C321        F334   1.380       .  S
C321        F335   1.383       .  S
C321        F336   1.382       .  S
C323        F331   1.362   1_445  S
C323        F333   1.387       .  S
C323        F764   1.377       .  S
F332        C755   1.377       .  S
C337        C338   1.393       .  A
C337        C342   1.417       .  A
C337        H347   1.085       .  S
C338        C343   1.501       .  S
C338        C339   1.404       .  A
C339        C344   1.523       .  S
C339        C340   1.414       .  A
C340        C341   1.429       .  A
C340        H345   1.046       .  S
C341       C1319   1.651   1_455  S
C341        C342   1.456       .  A
C342       C1210   1.518   1_455  S
C343        C348   1.420       .  A
C343        C352   1.406       .  A
C344        F360   1.382       .  S
C344        F361   1.381       .  S
C344        F362   1.382   1_554  S
C346       C1206   1.517       .  S
C346        F357   1.385       .  S
C346        F358   1.377       .  S
C346        F359   1.363       .  S
C348        C353   1.522       .  S
C348        C349   1.413       .  A
C349        C350   1.407       .  A
C349        H354   1.082       .  S
C350        C351   1.417       .  A
C351        C355   1.517       .  S
C351        C352   1.414       .  A
C352        H356   1.081       .  S
C353        F366   1.385       .  S
C353        F367   1.382       .  S
C353        F800   1.381       .  S
C355        F363   1.382       .  S
C355        F364   1.384       .  S
C355        F365   1.385       .  S
F368        C785   1.381   1_545  S
C369        C370   1.409       .  A
C369        C374   1.416       .  A
C369        H379   1.083       .  S
C370        C375   1.498       .  S
C370        C371   1.417       .  A
C371        C376   1.517       .  S
C371        C372   1.405       .  A
C372        C373   1.404       .  A
C372        H377   1.083       .  S
C373        C374   1.417       .  A
C374        C378   1.516       .  S
C375        C380   1.404       .  A
C375        C384   1.380       .  A
C376        F393   1.381       .  S
C376        F394   1.382       .  S
C376        F824   1.385       .  S
C378        F389   1.382       .  S
C378        F390   1.385       .  S
C378        F391   1.383       .  S
C380        C385   1.517       .  S
C380        C381   1.417       .  A
C381        C382   1.442       .  A
C381        H386   1.060       .  S
C382        C455   1.662       .  S
C382        C383   1.471       .  A
C383        C819   1.512       .  S
C383        C384   1.411       .  A
C384        H388   1.088       .  S
C385        F398   1.384       .  S
C385        F399   1.382       .  S
C385        F400   1.382       .  S
C387        C815   1.514   1_545  S
C387        F396   1.341       .  S
C387        F397   1.381       .  S
C387        F827   1.389   1_545  S
F392        C808   1.385       .  S
F395        C819   1.389       .  S
C401        C402   1.401       .  A
C401        C406   1.409       .  A
C401        H411   1.083       .  S
C402        C407   1.494       .  S
C402        C403   1.425       .  A
C403        C408   1.516       .  S
C403        C404   1.407       .  A
C404        C405   1.395       .  A
C404        H409   1.084       .  S
C405        C406   1.419       .  A
C406        C410   1.516       .  S
C407        C412   1.406       .  A
C407        C416   1.396       .  A
C408        F424   1.381       .  S
C408        F425   1.380       .  S
C408        F426   1.385       .  S
C410        F421   1.381       .  S
C410        F422   1.385       .  S
C410        F423   1.382       .  S
C412        C417   1.522       .  S
C412        C413   1.409       .  A
C413        C414   1.429       .  A
C413        H418   1.071       .  S
C414        C887   1.636   1_455  S
C414        C415   1.465   1_455  A
C415       C1283   1.552       .  S
C415        C416   1.417   1_655  A
C416        H420   1.085   1_455  S
C417        F430   1.384       .  S
C417        F431   1.383       .  S
C417        F432   1.382       .  S
C419       C1279   1.553       .  S
C419        F427   1.385       .  S
C419        F428   1.367   1_554  S
C419        F429   1.382   1_554  S
O433       Cr451   1.997       .  S
O433        C441   1.261       .  A
O434       Cr451   1.967       .  S
O434        C435   1.257       .  A
C435        O436   1.270       .  A
C435        C741   1.499       .  S
O436       Cr452   2.029       .  S
O437       Cr452   2.004       .  S
O437        C438   1.264       .  A
C438        O439   1.262       .  A
C438        C686   1.501       .  S
O439       Cr453   2.006       .  S
O440       Cr453   1.980       .  S
O440        C441   1.262       .  A
C441        C718   1.491       .  S
O442       Cr451   1.985       .  S
O442        C450   1.260       .  A
O443       Cr451   2.007       .  S
O443        C444   1.263       .  A
C444        O445   1.264       .  A
C444        C837   1.489       .  S
O445       Cr452   1.995       .  S
O446       Cr452   2.029       .  S
O446        C447   1.273       .  A
C447        O448   1.266       .  A
C447        C782   1.493       .  S
O448       Cr453   1.986       .  S
O449       Cr453   2.019       .  S
O449        C450   1.268       .  A
C450        C805   1.487       .  S
Cr451       O454   1.775       .  S
Cr452       O454   1.772       .  S
Cr453       O454   1.775       .  S
C455        C911   1.770   1_554  S
C455       C1205   1.649       .  S
C455       C1710   1.631       .  S
C456        C480   1.783   1_655  S
C456        C677   1.630   1_645  S
C456       C1573   1.628   1_545  S
O457       Cr475   1.992       .  S
O457        C465   1.264       .  A
O458       Cr475   2.021       .  S
O458        C459   1.268       .  A
C459        O460   1.256       .  A
C459        C485   1.482       .  S
O460       Cr476   1.971       .  S
O461       Cr476   2.001       .  S
O461        C462   1.263       .  A
C462        O463   1.257       .  A
C462        C558   1.466       .  S
O463       Cr477   1.969       .  S
O464       Cr477   1.996       .  S
O464        C465   1.262       .  A
C465        C517   1.471       .  S
O466       Cr475   2.021       .  S
O466        C474   1.267       .  A
O467       Cr475   1.993       .  S
O467        C468   1.265       .  A
C468        O469   1.263       .  A
C468        C581   1.478       .  S
O469       Cr476   2.003       .  S
O470       Cr476   1.974       .  S
O470        C471   1.256       .  A
C471        O472   1.264       .  A
C471        C654   1.480       .  S
O472       Cr477   1.990       .  S
O473       Cr477   1.984       .  S
O473        C474   1.260       .  A
C474        C622   1.482       .  S
Cr475       O478   1.769       .  S
Cr476       O478   1.776       .  S
Cr477       O478   1.772       .  S
C479        C887   1.773   1_566  S
C479       C1358   1.617       .  S
C479        C981   1.609   1_565  S
C480       C1454   1.627   1_445  S
C480       C1077   1.612   1_455  S
C481        C482   1.402       .  A
C481        C486   1.406       .  A
C481        H491   1.083       .  S
C482        C487   1.486       .  S
C482        C483   1.416       .  A
C483        C488   1.517       .  S
C483        C484   1.411       .  A
C484        C485   1.404       .  A
C484        H489   1.083       .  S
C485        C486   1.419       .  A
C486        C490   1.520       .  S
C487        C492   1.407       .  A
C487        C496   1.386       .  A
C488        F504   1.382       .  S
C488        F505   1.382       .  S
C488        F506   1.384       .  S
C490        F501   1.381       .  S
C490        F502   1.385       .  S
C490        F503   1.381       .  S
C492        C497   1.518       .  S
C492        C493   1.418       .  A
C493        C494   1.424       .  A
C493        H498   1.058   1_556  S
C494       C1343   1.616       .  S
C494        C495   1.463       .  A
C495        C499   1.533       .  S
C495        C496   1.399       .  A
C496        H500   1.087       .  S
C497        F510   1.383   1_556  S
C497        F511   1.382       .  S
C497        F512   1.381   1_556  S
C499       F1371   1.388       .  S
C499        F509   1.380       .  S
F507       C1363   1.387       .  S
C513        C514   1.403       .  A
C513        C518   1.410       .  A
C513        H523   1.083       .  S
C514        C519   1.486       .  S
C514        C515   1.420       .  A
C515        C520   1.519       .  S
C515        C516   1.403       .  A
C516        C517   1.398       .  A
C516        H521   1.084       .  S
C517        C518   1.415       .  A
C518        C522   1.515       .  S
C519        C524   1.394       .  A
C519        C528   1.375       .  A
C520        F536   1.379       .  S
C520        F537   1.381       .  S
C520        F538   1.384       .  S
C522        F533   1.381       .  S
C522        F534   1.384       .  S
C522        F535   1.383       .  S
C524        C529   1.523       .  S
C524        C525   1.412       .  A
C525        C526   1.455       .  A
C526        C527   1.480       .  A
C527        C531   1.512       .  S
C527        C528   1.409       .  A
C528        H532   1.088       .  S
C529        F543   1.383       .  S
C529        F544   1.382       .  S
C531        F539   1.384       .  S
C531        F540   1.324       .  S
C531        F541   1.386       .  S
C545        C546   1.384       .  A
C545        C550   1.413       .  A
C545        H555   1.085       .  S
C546        C551   1.478       .  S
C546        C547   1.400       .  A
C547        C552   1.525       .  S
C547        C548   1.402       .  A
C548        C549   1.427       .  A
C548       H1417   1.058       .  S
C549        C911   1.605       .  S
C549        C550   1.470       .  A
C550        C554   1.539       .  S
C551        C556   1.418       .  A
C551        C560   1.400       .  A
C552        F568   1.382       .  S
C552        F569   1.383       .  S
C552       F1434   1.383       .  S
H553       C1412   1.062   1_455  S
C554        F566   1.381       .  S
C554        F567   1.360       .  S
C556        C561   1.519       .  S
C556        C557   1.405       .  A
C557        C558   1.401       .  A
C557        H562   1.083       .  S
C558        C559   1.413       .  A
C559        C563   1.515       .  S
C559        C560   1.401       .  A
C560        H564   1.084       .  S
C561        F575   1.381       .  S
C561        F576   1.381       .  S
C563        F571   1.385       .  S
C563        F572   1.382       .  S
C563        F573   1.380       .  S
F570       C1416   1.383   1_455  S
C577        C578   1.397       .  A
C577        C582   1.399       .  A
C577        H587   1.082       .  S
C578        C583   1.488       .  S
C578        C579   1.420       .  A
C579        C584   1.517       .  S
C579        C580   1.410       .  A
C580        C581   1.404       .  A
C580        H585   1.082       .  S
C581        C582   1.415       .  A
C582        C586   1.511       .  S
C583        C588   1.409       .  A
C583        C592   1.388       .  A
C584        F600   1.379       .  S
C584        F601   1.381       .  S
C584        F602   1.384       .  S
C586        F597   1.384       .  S
C586        F598   1.380       .  S
C586        F599   1.380       .  S
C588        C593   1.526       .  S
C588        C589   1.416       .  A
C589        C590   1.413       .  A
C589       H1458   1.044       .  S
C590       C1344   1.630   1_565  S
C590        C591   1.470       .  A
C591        C595   1.539       .  S
C591        C592   1.406       .  A
C592        H596   1.086       .  S
C593       F1470   1.379       .  S
C593        F607   1.378       .  S
C593       F1472   1.383       .  S
H594       C1453   1.042       .  S
C595        F603   1.369       .  S
C595        F604   1.380       .  S
C595        F605   1.384       .  S
F606       C1457   1.380   1_455  S
F608       C1457   1.383       .  S
C609        C610   1.384       .  A
C609        C614   1.415       .  A
C609        H619   1.085       .  S
C610        C615   1.485       .  S
C610        C611   1.391       .  A
C611        C616   1.524       .  S
C611        C612   1.405       .  A
C612        C613   1.454       .  A
C612        H617   1.068       .  S
C613        C614   1.475       .  A
C615        C620   1.424       .  A
C615        C624   1.400       .  A
C616        F632   1.383       .  S
C616        F633   1.383       .  S
C616        F634   1.384       .  S
C618        F629   1.372       .  S
C618        F631   1.366       .  S
C620        C625   1.521       .  S
C620        C621   1.405       .  A
C621        C622   1.398       .  A
C621        H626   1.085       .  S
C622        C623   1.413       .  A
C623        C627   1.501       .  S
C623        C624   1.408       .  A
C624        H628   1.083       .  S
C625        F638   1.382       .  S
C625        F640   1.378       .  S
C627        F635   1.382       .  S
C627        F636   1.384       .  S
C627        F637   1.385       .  S
C641        C642   1.388       .  A
C641        C646   1.406       .  A
C641        H651   1.086       .  S
C642        C647   1.475       .  S
C642        C643   1.402       .  A
C643        C648   1.521       .  S
C643        C644   1.405       .  A
C644        C645   1.418       .  A
C644        H649   1.047       .  S
C645        C912   1.606       .  S
C645        C646   1.468       .  A
C646       C1514   1.537       .  S
C647        C652   1.416       .  A
C647        C656   1.402       .  A
C648        F664   1.381       .  S
C648        F665   1.381       .  S
C648        F666   1.382       .  S
C650       C1510   1.536       .  S
C650        F661   1.383       .  S
C650        F662   1.384   1_655  S
C650        F663   1.367   1_655  S
C652        C657   1.519       .  S
C652        C653   1.396       .  A
C653        C654   1.404       .  A
C653        H658   1.085       .  S
C654        C655   1.421       .  A
C655        C659   1.519       .  S
C655        C656   1.407       .  A
C656        H660   1.083       .  S
C657        F670   1.383       .  S
C657        F671   1.384       .  S
C659        F667   1.383       .  S
C659        F668   1.383       .  S
C659        F669   1.385       .  S
C673        C674   1.385       .  A
C673        C678   1.420       .  A
C673        H683   1.081       .  S
C674        C679   1.498       .  S
C674        C675   1.402       .  A
C675        C680   1.519   1_565  S
C675        C676   1.413       .  A
C676        C677   1.436       .  A
C676        H681   1.076   1_565  S
C677        C678   1.485       .  A
C678       C1546   1.547   1_455  S
C679        C684   1.419       .  A
C679        C688   1.400       .  A
C680        F696   1.384       .  S
C680        F697   1.382       .  S
C680        F698   1.382   1_545  S
C682       C1542   1.543       .  S
C682        F693   1.374       .  S
C682        F694   1.387       .  S
C682        F695   1.372       .  S
C684        C689   1.517       .  S
C684        C685   1.415       .  A
C685        C686   1.408       .  A
C685        H690   1.083       .  S
C686        C687   1.427       .  A
C687        C691   1.519       .  S
C687        C688   1.408       .  A
C688        H692   1.082       .  S
C689        F702   1.384       .  S
C689       F1567   1.381       .  S
C689        F704   1.382       .  S
C691        F699   1.382       .  S
C691        F700   1.382       .  S
C691        F701   1.385       .  S
F703       C1553   1.381       .  S
C705        C706   1.383       .  A
C705        C710   1.409   1_565  A
C705        H715   1.087       .  S
C706        C711   1.476       .  S
C706        C707   1.397       .  A
C707        C712   1.526       .  S
C707        C708   1.407       .  A
C708        C709   1.417       .  A
C708        H713   1.041       .  S
C709       C1320   1.625   1_565  S
C709        C710   1.480   1_565  A
C710        C714   1.547       .  S
C711        C716   1.412       .  A
C711        C720   1.396       .  A
C712        F728   1.382       .  S
C712        F729   1.382       .  S
C712        F730   1.381       .  S
C714        F725   1.380       .  S
C714        F727   1.387       .  S
C716        C721   1.520       .  S
C716        C717   1.405       .  A
C717        C718   1.411       .  A
C717        H722   1.082       .  S
C718        C719   1.428       .  A
C719        C723   1.523       .  S
C719        C720   1.401       .  A
C720        H724   1.083       .  S
C721        F734   1.384       .  S
C721        F735   1.381   1_565  S
C721        F736   1.383       .  S
C723        F731   1.381       .  S
C723        F732   1.384       .  S
C723        F733   1.385       .  S
C737        C738   1.404       .  A
C737        C742   1.409       .  A
C737        H747   1.083       .  S
C738        C743   1.492       .  S
C738        C739   1.413       .  A
C739        C744   1.521       .  S
C739        C740   1.410       .  A
C740        C741   1.414       .  A
C740        H745   1.082       .  S
C741        C742   1.421       .  A
C742        C746   1.519       .  S
C743        C748   1.402       .  A
C743        C752   1.390       .  A
C744        F760   1.381       .  S
C744        F761   1.382       .  S
C744        F762   1.385       .  S
C746        F757   1.385       .  S
C746        F758   1.382       .  S
C746        F759   1.384       .  S
C748        C753   1.522       .  S
C748        C749   1.410       .  A
C749        C750   1.418       .  A
C749        H754   1.039       .  S
C750        C751   1.467       .  A
C751        C755   1.533       .  S
C751        C752   1.414       .  A
C752        H756   1.084       .  S
C753        F766   1.380       .  S
C753        F767   1.381       .  S
C753        F768   1.382       .  S
C755        F763   1.365   1_455  S
C755        F765   1.386       .  S
C769        C770   1.392       .  A
C769        C774   1.417       .  A
C769        H779   1.085       .  S
C770        C775   1.502       .  S
C770        C771   1.404       .  A
C771        C776   1.523       .  S
C771        C772   1.416       .  A
C772        C773   1.430       .  A
C772        H777   1.047   1_565  S
C773        C887   1.654   1_465  S
C773        C774   1.455       .  A
C774       C1642   1.516   1_455  S
C775        C780   1.421       .  A
C775        C784   1.406       .  A
C776        F792   1.382       .  S
C776        F793   1.381       .  S
C776        F794   1.381   1_554  S
C778       C1638   1.515       .  S
C778        F789   1.385   1_565  S
C778        F790   1.374       .  S
C778        F791   1.364   1_565  S
C780        C785   1.522       .  S
C780        C781   1.413       .  A
C781        C782   1.405       .  A
C781        H786   1.082       .  S
C782        C783   1.416       .  A
C783        C787   1.516       .  S
C783        C784   1.415       .  A
C784        H788   1.082       .  S
C785        F798   1.385   1_565  S
C785        F799   1.382   1_565  S
C787        F795   1.382       .  S
C787        F796   1.384       .  S
C787        F797   1.384       .  S
C801        C802   1.410       .  A
C801        C806   1.416       .  A
C801        H811   1.083       .  S
C802        C807   1.499       .  S
C802        C803   1.418       .  A
C803        C808   1.516       .  S
C803        C804   1.405       .  A
C804        C805   1.402       .  A
C804        H809   1.082       .  S
C805        C806   1.415       .  A
C806        C810   1.516       .  S
C807        C812   1.402       .  A
C807        C816   1.381       .  A
C808        F825   1.381       .  S
C808        F826   1.382       .  S
C810        F821   1.383       .  S
C810        F822   1.384       .  S
C810        F823   1.383       .  S
C812        C817   1.517       .  S
C812        C813   1.419       .  A
C813        C814   1.442       .  A
C813        H818   1.057       .  S
C814        C815   1.472       .  A
C815        C816   1.410       .  A
C816        H820   1.088       .  S
C817        F830   1.382       .  S
C817        F831   1.382       .  S
C817        F832   1.381       .  S
C819        F828   1.340       .  S
C819        F829   1.381       .  S
C833        C834   1.403       .  A
C833        C838   1.413       .  A
C833        H843   1.083       .  S
C834        C839   1.502       .  S
C834        C835   1.423       .  A
C835        C840   1.514       .  S
C835        C836   1.409       .  A
C836        C837   1.399       .  A
C836        H841   1.083       .  S
C837        C838   1.422       .  A
C838        C842   1.519       .  S
C839        C844   1.410       .  A
C839        C848   1.398       .  A
C840        F856   1.381       .  S
C840        F857   1.382       .  S
C840        F858   1.384       .  S
C842        F853   1.382       .  S
C842        F854   1.385       .  S
C842        F855   1.382       .  S
C844        C849   1.520       .  S
C844        C845   1.412       .  A
C845        C846   1.428       .  A
C845        H850   1.074       .  S
C846       C1319   1.637   1_455  S
C846        C847   1.459   1_455  A
C847       C1715   1.554       .  S
C847        C848   1.420   1_655  A
C848        H852   1.084   1_455  S
C849        F862   1.385       .  S
C849        F863   1.382       .  S
C849        F864   1.382       .  S
C851       C1711   1.556       .  S
C851        F859   1.384       .  S
C851        F860   1.368   1_554  S
C851        F861   1.379       .  S
O865       Cr883   1.996       .  S
O865        C873   1.260       .  A
O866       Cr883   1.968       .  S
O866        C867   1.258       .  A
C867        O868   1.268       .  A
C867       C1173   1.494       .  S
O868       Cr884   2.022       .  S
O869       Cr884   2.008       .  S
O869        C870   1.266       .  A
C870        O871   1.261       .  A
C870       C1118   1.503       .  S
O871       Cr885   2.003       .  S
O872       Cr885   1.988       .  S
O872        C873   1.264       .  A
C873       C1150   1.496       .  S
O874       Cr883   1.991       .  S
O874        C882   1.262       .  A
O875       Cr883   2.002       .  S
O875        C876   1.262       .  A
C876        O877   1.265       .  A
C876       C1269   1.486       .  S
O877       Cr884   1.998       .  S
O878       Cr884   2.025       .  S
O878        C879   1.272       .  A
C879        O880   1.266       .  A
C879       C1214   1.493       .  S
O880       Cr885   1.986       .  S
O881       Cr885   2.011       .  S
O881        C882   1.267       .  A
C882       C1237   1.490       .  S
Cr883       O886   1.778       .  S
Cr884       O886   1.776       .  S
Cr885       O886   1.775       .  S
C887       C1678   1.655   1_545  S
C888        C912   1.780       .  S
C888       C1109   1.629       .  S
C888       C1614   1.619       .  S
O889       Cr907   1.990       .  S
O889        C897   1.263       .  A
O890       Cr907   2.018       .  S
O890        C891   1.268       .  A
C891        O892   1.257       .  A
C891        C917   1.485       .  S
O892       Cr908   1.976       .  S
O893       Cr908   2.008       .  S
O893        C894   1.266       .  A
C894        O895   1.257       .  A
C894        C990   1.470       .  S
O895       Cr909   1.969       .  S
O896       Cr909   2.001       .  S
O896        C897   1.264       .  A
C897        C949   1.473       .  S
O898       Cr907   2.019       .  S
O898        C906   1.267       .  A
O899       Cr907   1.990       .  S
O899        C900   1.264       .  A
C900        O901   1.265       .  A
C900       C1013   1.479       .  S
O901       Cr908   2.009       .  S
O902       Cr908   1.980       .  S
O902        C903   1.258       .  A
C903        O904   1.266       .  A
C903       C1086   1.491       .  S
O904       Cr909   2.002       .  S
O905       Cr909   1.983       .  S
O905        C906   1.260       .  A
C906       C1054   1.479       .  S
Cr907       O910   1.771       .  S
Cr908       O910   1.776       .  S
Cr909       O910   1.772       .  S
C911       C1390   1.670       .  S
C912       C1477   1.675       .  S
C913        C914   1.402       .  A
C913        C918   1.406       .  A
C913        H923   1.083       .  S
C914        C919   1.486       .  S
C914        C915   1.415       .  A
C915        C920   1.518       .  S
C915        C916   1.410       .  A
C916        C917   1.406       .  A
C916        H921   1.083       .  S
C917        C918   1.421       .  A
C918        C922   1.520       .  S
C919        C924   1.407       .  A
C919        C928   1.385       .  A
C920        F936   1.382       .  S
C920        F937   1.382       .  S
C920        F938   1.384       .  S
C922        F933   1.379       .  S
C922        F934   1.385   1_655  S
C922        F935   1.382       .  S
C924        C929   1.518       .  S
C924        C925   1.417       .  A
C925        C926   1.423       .  A
C925        H930   1.057   1_656  S
C926        C927   1.464       .  A
C927        C931   1.534       .  S
C927        C928   1.400       .  A
C928        H932   1.086       .  S
C929        F942   1.383   1_556  S
C929        F943   1.382       .  S
C929        F944   1.382   1_556  S
C931       F1372   1.370   1_655  S
C931        F941   1.379       .  S
F940       C1363   1.369   1_455  S
C945        C946   1.403       .  A
C945        C950   1.409       .  A
C945        H955   1.083       .  S
C946        C951   1.482       .  S
C946        C947   1.419       .  A
C947        C952   1.521       .  S
C947        C948   1.404       .  A
C948        C949   1.400       .  A
C948        H953   1.084       .  S
C949        C950   1.415       .  A
C950        C954   1.514       .  S
C951        C956   1.392       .  A
C951        C960   1.375       .  A
C952        F968   1.379       .  S
C952        F969   1.381       .  S
C952        F970   1.382       .  S
C954        F965   1.381       .  S
C954        F966   1.385       .  S
C954        F967   1.383       .  S
C956        C961   1.524   1_545  S
C956        C957   1.410   1_545  A
C957        C958   1.457   1_565  A
C957       H1394   1.064       .  S
C958       C1343   1.668   1_545  S
C958        C959   1.478       .  A
C959        C963   1.512       .  S
C959        C960   1.408       .  A
C960        H964   1.089       .  S
C961       F1406   1.385       .  S
C961        F975   1.383       .  S
C961        F976   1.381       .  S
H962       C1389   1.066       .  S
C963        F971   1.384       .  S
C963        F972   1.324       .  S
C963        F973   1.386       .  S
F974       C1393   1.385       .  S
C977        C978   1.387   1_565  A
C977        C982   1.418       .  A
C977        H987   1.085       .  S
C978        C983   1.481       .  S
C978        C979   1.399       .  A
C979        C984   1.525       .  S
C979        C980   1.402       .  A
C980        C981   1.429       .  A
C981        C982   1.471   1_545  A
C982        C986   1.540       .  S
C983        C988   1.416       .  A
C983        C992   1.402       .  A
C984       F1000   1.382       .  S
C984       F1001   1.382       .  S
C986       F1429   1.384       .  S
C986        F998   1.381       .  S
C986        F999   1.361       .  S
C988        C993   1.518   1_545  S
C988        C989   1.405       .  A
C989        C990   1.401       .  A
C989        H994   1.083       .  S
C990        C991   1.414       .  A
C991        C995   1.515       .  S
C991        C992   1.404       .  A
C992        H996   1.084       .  S
C993       F1438   1.384       .  S
C993       F1007   1.382       .  S
C993       F1008   1.381       .  S
C995       F1003   1.385       .  S
C995       F1004   1.381       .  S
C995       F1005   1.379       .  S
F997       C1418   1.384       .  S
F1006      C1425   1.385       .  S
C1009      C1010   1.397       .  A
C1009      C1014   1.399       .  A
C1009      H1019   1.081       .  S
C1010      C1015   1.491       .  S
C1010      C1011   1.422       .  A
C1011      C1016   1.518       .  S
C1011      C1012   1.411       .  A
C1012      C1013   1.403       .  A
C1012      H1017   1.083       .  S
C1013      C1014   1.416       .  A
C1014      C1018   1.512       .  S
C1015      C1020   1.411       .  A
C1015      C1024   1.386       .  A
C1016      F1032   1.380       .  S
C1016      F1033   1.381   1_655  S
C1016      F1034   1.385       .  S
C1018      F1029   1.383       .  S
C1018      F1030   1.381       .  S
C1018      F1031   1.380       .  S
C1020      C1025   1.524       .  S
C1020      C1021   1.416       .  A
C1021      C1022   1.413       .  A
C1022      C1023   1.471       .  A
C1023      C1027   1.539       .  S
C1023      C1024   1.406       .  A
C1024      H1028   1.086       .  S
C1025      F1039   1.380       .  S
C1027      F1035   1.370       .  S
C1027      F1036   1.376       .  S
C1027      F1037   1.383       .  S
C1041      C1042   1.380       .  A
C1041      C1046   1.415       .  A
C1041      H1051   1.084       .  S
C1042      C1047   1.480       .  S
C1042      C1043   1.388       .  A
C1043      C1048   1.525       .  S
C1043      C1044   1.403       .  A
C1044      C1045   1.455       .  A
C1044      H1049   1.068       .  S
C1045      C1344   1.671       .  S
C1045      C1046   1.482       .  A
C1046      C1482   1.533   1_545  S
C1047      C1052   1.423       .  A
C1047      C1056   1.398       .  A
C1048      F1064   1.383       .  S
C1048      F1065   1.382       .  S
C1048      F1066   1.385       .  S
C1050      C1478   1.535       .  S
C1050      F1061   1.373       .  S
C1050      F1494   1.388       .  S
C1050      F1063   1.365       .  S
C1052      C1057   1.521       .  S
C1052      C1053   1.404       .  A
C1053      C1054   1.399       .  A
C1053      H1058   1.085       .  S
C1054      C1055   1.412       .  A
C1055      C1059   1.501       .  S
C1055      C1056   1.405       .  A
C1056      H1060   1.083       .  S
C1057      F1070   1.380       .  S
C1057      F1503   1.383       .  S
C1057      F1072   1.377       .  S
C1059      F1067   1.382       .  S
C1059      F1068   1.383       .  S
C1059      F1069   1.385       .  S
F1062      C1482   1.389       .  S
F1071      C1489   1.381       .  S
C1073      C1074   1.387       .  A
C1073      C1078   1.407       .  A
C1073      H1083   1.086       .  S
C1074      C1079   1.484       .  S
C1074      C1075   1.405       .  A
C1075      C1080   1.520       .  S
C1075      C1076   1.410       .  A
C1076      C1077   1.420       .  A
C1076      H1081   1.050       .  S
C1077      C1078   1.468       .  A
C1079      C1084   1.417       .  A
C1079      C1088   1.403       .  A
C1080      F1096   1.382       .  S
C1080      F1097   1.381       .  S
C1080      F1098   1.382       .  S
C1082      F1093   1.384   1_545  S
C1082      F1094   1.384       .  S
C1082      F1095   1.368   1_545  S
C1084      C1089   1.518       .  S
C1084      C1085   1.401       .  A
C1085      C1086   1.405       .  A
C1085      H1090   1.085       .  S
C1086      C1087   1.424       .  A
C1087      C1091   1.520       .  S
C1087      C1088   1.411       .  A
C1088      H1092   1.083       .  S
C1089      F1102   1.384       .  S
C1089      F1103   1.383       .  S
C1089      F1536   1.378       .  S
C1091      F1099   1.384       .  S
C1091      F1100   1.383       .  S
C1091      F1101   1.385   1_655  S
F1104      C1521   1.383       .  S
C1105      C1106   1.386       .  A
C1105      C1110   1.420       .  A
C1105      H1115   1.081       .  S
C1106      C1111   1.499       .  S
C1106      C1107   1.402       .  A
C1107      C1112   1.519       .  S
C1107      C1108   1.412       .  A
C1108      C1109   1.437       .  A
C1108      H1113   1.077       .  S
C1109      C1110   1.483       .  A
C1111      C1116   1.418       .  A
C1111      C1120   1.399       .  A
C1112      F1128   1.385       .  S
C1112      F1129   1.382       .  S
C1112      F1130   1.382       .  S
C1114      F1125   1.373       .  S
C1114      F1126   1.386       .  S
C1114      F1127   1.373       .  S
C1116      C1121   1.517       .  S
C1116      C1117   1.414       .  A
C1117      C1118   1.407       .  A
C1117      H1122   1.083       .  S
C1118      C1119   1.429       .  A
C1119      C1123   1.519       .  S
C1119      C1120   1.410       .  A
C1120      H1124   1.082       .  S
C1121      F1134   1.384       .  S
C1121      F1136   1.382       .  S
C1123      F1131   1.381       .  S
C1123      F1132   1.383       .  S
C1123      F1133   1.385       .  S
C1137      C1138   1.382       .  A
C1137      C1142   1.410       .  A
C1137      H1147   1.087       .  S
C1138      C1143   1.483       .  S
C1138      C1139   1.400       .  A
C1139      C1144   1.524       .  S
C1139      C1140   1.413       .  A
C1140      C1141   1.418       .  A
C1140      H1145   1.044       .  S
C1141      C1142   1.481       .  A
C1142      C1146   1.546       .  S
C1143      C1148   1.413       .  A
C1143      C1152   1.396       .  A
C1144      F1160   1.382       .  S
C1144      F1161   1.381       .  S
C1144      F1162   1.381       .  S
C1146      F1157   1.380       .  S
C1146      F1590   1.361       .  S
C1146      F1159   1.387       .  S
C1148      C1153   1.519       .  S
C1148      C1149   1.406       .  A
C1149      C1150   1.410       .  A
C1149      H1154   1.082       .  S
C1150      C1151   1.431       .  A
C1151      C1155   1.524       .  S
C1151      C1152   1.405       .  A
C1152      H1156   1.083       .  S
C1153      F1166   1.385       .  S
C1153      F1167   1.381       .  S
C1153      F1168   1.383       .  S
C1155      F1163   1.382       .  S
C1155      F1164   1.384       .  S
C1155      F1165   1.385       .  S
F1158      C1578   1.362       .  S
C1169      C1170   1.405       .  A
C1169      C1174   1.409       .  A
C1169      H1179   1.084       .  S
C1170      C1175   1.486       .  S
C1170      C1171   1.414       .  A
C1171      C1176   1.519       .  S
C1171      C1172   1.404       .  A
C1172      C1173   1.411       .  A
C1172      H1177   1.084       .  S
C1173      C1174   1.421       .  A
C1174      C1178   1.519       .  S
C1175      C1180   1.402       .  A
C1175      C1184   1.387       .  A
C1176      F1192   1.383       .  S
C1176      F1193   1.382       .  S
C1176      F1194   1.384       .  S
C1178      F1189   1.385       .  S
C1178      F1190   1.382       .  S
C1178      F1191   1.383       .  S
C1180      C1185   1.519       .  S
C1180      C1181   1.407       .  A
C1181      C1182   1.414       .  A
C1181      H1186   1.041       .  S
C1182      C1320   1.615       .  S
C1182      C1183   1.468       .  A
C1183      C1187   1.531       .  S
C1183      C1184   1.412       .  A
C1184      H1188   1.085       .  S
C1185      F1198   1.378       .  S
C1185      F1199   1.383       .  S
C1185      F1200   1.382       .  S
C1187      F1195   1.361   1_545  S
C1187      F1628   1.379       .  S
C1187      F1197   1.387       .  S
F1196      C1619   1.377       .  S
C1201      C1202   1.392       .  A
C1201      C1206   1.416       .  A
C1201      H1211   1.085       .  S
C1202      C1207   1.498       .  S
C1202      C1203   1.403       .  A
C1203      C1208   1.522       .  S
C1203      C1204   1.413       .  A
C1204      C1205   1.426       .  A
C1204      H1209   1.046       .  S
C1205      C1206   1.456       .  A
C1207      C1212   1.419       .  A
C1207      C1216   1.406       .  A
C1208      F1224   1.382       .  S
C1208      F1225   1.381       .  S
C1208      F1226   1.379   1_554  S
C1210      F1221   1.385   1_655  S
C1210      F1222   1.377       .  S
C1210      F1223   1.364       .  S
C1212      C1217   1.522       .  S
C1212      C1213   1.411       .  A
C1213      C1214   1.405       .  A
C1213      H1218   1.083       .  S
C1214      C1215   1.419       .  A
C1215      C1219   1.517       .  S
C1215      C1216   1.414       .  A
C1216      H1220   1.082       .  S
C1217      F1230   1.384       .  S
C1217      F1231   1.382       .  S
C1217      F1664   1.381       .  S
C1219      F1227   1.382       .  S
C1219      F1228   1.383       .  S
C1219      F1229   1.385       .  S
F1232      C1649   1.381   1_545  S
C1233      C1234   1.410       .  A
C1233      C1238   1.416       .  A
C1233      H1243   1.083       .  S
C1234      C1239   1.501       .  S
C1234      C1235   1.419       .  A
C1235      C1240   1.519       .  S
C1235      C1236   1.405       .  A
C1236      C1237   1.404       .  A
C1236      H1241   1.083       .  S
C1237      C1238   1.416       .  A
C1238      C1242   1.516       .  S
C1239      C1244   1.401       .  A
C1239      C1248   1.378       .  A
C1240      F1688   1.385       .  S
C1240      F1257   1.381       .  S
C1240      F1258   1.381       .  S
C1242      F1253   1.383       .  S
C1242      F1254   1.384       .  S
C1242      F1255   1.383       .  S
C1244      C1249   1.518       .  S
C1244      C1245   1.421       .  A
C1245      C1246   1.444       .  A
C1245      H1250   1.058       .  S
C1246      C1319   1.665       .  S
C1246      C1247   1.476       .  A
C1247      C1683   1.515       .  S
C1247      C1248   1.411       .  A
C1248      H1252   1.088       .  S
C1249      F1262   1.381       .  S
C1249      F1263   1.382       .  S
C1249      F1264   1.382       .  S
C1251      C1679   1.515   1_545  S
C1251      F1691   1.389   1_545  S
C1251      F1260   1.341       .  S
C1251      F1261   1.381       .  S
F1256      C1672   1.385       .  S
F1259      C1683   1.390       .  S
C1265      C1266   1.402       .  A
C1265      C1270   1.412       .  A
C1265      H1275   1.083       .  S
C1266      C1271   1.499       .  S
C1266      C1267   1.423       .  A
C1267      C1272   1.515       .  S
C1267      C1268   1.408       .  A
C1268      C1269   1.398       .  A
C1268      H1273   1.083       .  S
C1269      C1270   1.423       .  A
C1270      C1274   1.519       .  S
C1271      C1276   1.409       .  A
C1271      C1280   1.395       .  A
C1272      F1288   1.380       .  S
C1272      F1289   1.382       .  S
C1272      F1290   1.385       .  S
C1274      F1285   1.382       .  S
C1274      F1286   1.385       .  S
C1274      F1287   1.382       .  S
C1276      C1281   1.520       .  S
C1276      C1277   1.412       .  A
C1277      C1278   1.429       .  A
C1277      H1282   1.073       .  S
C1278      C1279   1.463       .  A
C1279      C1280   1.419       .  A
C1280      H1284   1.085       .  S
C1281      F1294   1.384       .  S
C1281      F1295   1.383       .  S
C1281      F1296   1.382       .  S
C1283      F1291   1.384       .  S
C1283      F1292   1.364   1_554  S
C1283      F1293   1.380   1_655  S
O1297     Cr1315   1.985       .  S
O1297      C1305   1.257       .  A
O1298     Cr1315   1.975       .  S
O1298      C1299   1.260       .  A
C1299      O1300   1.268       .  A
C1299      C1605   1.498       .  S
O1300     Cr1316   2.023       .  S
O1301     Cr1316   1.999       .  S
O1301      C1302   1.264       .  A
C1302      O1303   1.259       .  A
C1302      C1550   1.492       .  S
O1303     Cr1317   1.994       .  S
O1304     Cr1317   1.988       .  S
O1304      C1305   1.264       .  A
C1305      C1582   1.490       .  S
O1306     Cr1315   1.987       .  S
O1306      C1314   1.261       .  A
O1307     Cr1315   1.988       .  S
O1307      C1308   1.258       .  A
C1308      O1309   1.264       .  A
C1308      C1701   1.474       .  S
O1309     Cr1316   1.990       .  S
O1310     Cr1316   2.026       .  S
O1310      C1311   1.272       .  A
C1311      O1312   1.267       .  A
C1311      C1646   1.496       .  S
O1312     Cr1317   1.992       .  S
O1313     Cr1317   2.005       .  S
O1313      C1314   1.266       .  A
C1314      C1669   1.483       .  S
Cr1315     O1318   1.777       .  S
Cr1316     O1318   1.772       .  S
Cr1317     O1318   1.775       .  S
C1320      C1344   1.777       .  S
C1320      C1541   1.629   1_545  S
O1321     Cr1339   1.987       .  S
O1321      C1329   1.260       .  A
O1322     Cr1339   2.021       .  S
O1322      C1323   1.270       .  A
C1323      O1324   1.259       .  A
C1323      C1349   1.489       .  S
O1324     Cr1340   1.980       .  S
O1325     Cr1340   2.010       .  S
O1325      C1326   1.267       .  A
C1326      O1327   1.257       .  A
C1326      C1422   1.467       .  S
O1327     Cr1341   1.963       .  S
O1328     Cr1341   1.988       .  S
O1328      C1329   1.260       .  A
C1329      C1381   1.465       .  S
O1330     Cr1339   2.027       .  S
O1330      C1338   1.270       .  A
O1331     Cr1339   1.988       .  S
O1331      C1332   1.263       .  A
C1332      O1333   1.263       .  A
C1332      C1445   1.475       .  S
O1333     Cr1340   2.002       .  S
O1334     Cr1340   1.985       .  S
O1334      C1335   1.258       .  A
C1335      O1336   1.262       .  A
C1335      C1518   1.487       .  S
O1336     Cr1341   1.989       .  S
O1337     Cr1341   1.973       .  S
O1337      C1338   1.259       .  A
C1338      C1486   1.477       .  S
Cr1339     O1342   1.767       .  S
Cr1340     O1342   1.773       .  S
Cr1341     O1342   1.771       .  S
C1345      C1346   1.404       .  A
C1345      C1350   1.409       .  A
C1345      H1355   1.083       .  S
C1346      C1351   1.491       .  S
C1346      C1347   1.416       .  A
C1347      C1352   1.517       .  S
C1347      C1348   1.411       .  A
C1348      C1349   1.405       .  A
C1348      H1353   1.083       .  S
C1349      C1350   1.421       .  A
C1350      C1354   1.519       .  S
C1351      C1356   1.410       .  A
C1351      C1360   1.386       .  A
C1352      F1368   1.382       .  S
C1352      F1369   1.381       .  S
C1352      F1370   1.385       .  S
C1354      F1365   1.379       .  S
C1354      F1366   1.385   1_655  S
C1354      F1367   1.382       .  S
C1356      C1361   1.518       .  S
C1356      C1357   1.420       .  A
C1357      C1358   1.424       .  A
C1357      H1362   1.060   1_656  S
C1358      C1359   1.462       .  A
C1359      C1363   1.533       .  S
C1359      C1360   1.400       .  A
C1360      H1364   1.087       .  S
C1361      F1374   1.384   1_556  S
C1361      F1375   1.382       .  S
C1361      F1376   1.381   1_556  S
C1363      F1373   1.379       .  S
C1377      C1378   1.404       .  A
C1377      C1382   1.407       .  A
C1377      H1387   1.083       .  S
C1378      C1383   1.476       .  S
C1378      C1379   1.418       .  A
C1379      C1384   1.522       .  S
C1379      C1380   1.400       .  A
C1380      C1381   1.399       .  A
C1380      H1385   1.084       .  S
C1381      C1382   1.413       .  A
C1382      C1386   1.516       .  S
C1383      C1388   1.389       .  A
C1383      C1392   1.373       .  A
C1384      F1400   1.382       .  S
C1384      F1401   1.380       .  S
C1384      F1402   1.385       .  S
C1386      F1397   1.382       .  S
C1386      F1398   1.384       .  S
C1386      F1399   1.383       .  S
C1388      C1393   1.524       .  S
C1388      C1389   1.408       .  A
C1389      C1390   1.458       .  A
C1390      C1391   1.480       .  A
C1391      C1395   1.512       .  S
C1391      C1392   1.407       .  A
C1392      H1396   1.089       .  S
C1393      F1407   1.383       .  S
C1393      F1408   1.381       .  S
C1395      F1403   1.384       .  S
C1395      F1404   1.325       .  S
C1395      F1405   1.387       .  S
C1409      C1410   1.388       .  A
C1409      C1414   1.415       .  A
C1409      H1419   1.084       .  S
C1410      C1415   1.477       .  S
C1410      C1411   1.398       .  A
C1411      C1416   1.525       .  S
C1411      C1412   1.398       .  A
C1412      C1413   1.429       .  A
C1413      C1414   1.468       .  A
C1414      C1418   1.540       .  S
C1415      C1420   1.417       .  A
C1415      C1424   1.401       .  A
C1416      F1432   1.382       .  S
C1416      F1433   1.383       .  S
C1418      F1430   1.380       .  S
C1418      F1431   1.362       .  S
C1420      C1425   1.519       .  S
C1420      C1421   1.404       .  A
C1421      C1422   1.402       .  A
C1421      H1426   1.083       .  S
C1422      C1423   1.413       .  A
C1423      C1427   1.514       .  S
C1423      C1424   1.400       .  A
C1424      H1428   1.084       .  S
C1425      F1439   1.381       .  S
C1425      F1440   1.382       .  S
C1427      F1435   1.385       .  S
C1427      F1436   1.383       .  S
C1427      F1437   1.380       .  S
C1441      C1442   1.397       .  A
C1441      C1446   1.397       .  A
C1441      H1451   1.082       .  S
C1442      C1447   1.486       .  S
C1442      C1443   1.419       .  A
C1443      C1448   1.517       .  S
C1443      C1444   1.409       .  A
C1444      C1445   1.403       .  A
C1444      H1449   1.083       .  S
C1445      C1446   1.415       .  A
C1446      C1450   1.510       .  S
C1447      C1452   1.410       .  A
C1447      C1456   1.388       .  A
C1448      F1464   1.380       .  S
C1448      F1465   1.381   1_655  S
C1448      F1466   1.385       .  S
C1450      F1461   1.383       .  S
C1450      F1462   1.380       .  S
C1450      F1463   1.379       .  S
C1452      C1457   1.527       .  S
C1452      C1453   1.412       .  A
C1453      C1454   1.411       .  A
C1454      C1455   1.470       .  A
C1455      C1459   1.539       .  S
C1455      C1456   1.406       .  A
C1456      H1460   1.086       .  S
C1457      F1471   1.379       .  S
C1459      F1467   1.369       .  S
C1459      F1468   1.380       .  S
C1459      F1469   1.384       .  S
C1473      C1474   1.380       .  A
C1473      C1478   1.419       .  A
C1473      H1483   1.083       .  S
C1474      C1479   1.482       .  S
C1474      C1475   1.387       .  A
C1475      C1480   1.528       .  S
C1475      C1476   1.401       .  A
C1476      C1477   1.456       .  A
C1476      H1481   1.066       .  S
C1477      C1478   1.485       .  A
C1479      C1484   1.420       .  A
C1479      C1488   1.396       .  A
C1480      F1496   1.382       .  S
C1480      F1497   1.383       .  S
C1480      F1498   1.385       .  S
C1482      F1493   1.370       .  S
C1482      F1495   1.368       .  S
C1484      C1489   1.520       .  S
C1484      C1485   1.407       .  A
C1485      C1486   1.400       .  A
C1485      H1490   1.083       .  S
C1486      C1487   1.411       .  A
C1487      C1491   1.500       .  S
C1487      C1488   1.403       .  A
C1488      H1492   1.083       .  S
C1489      F1502   1.385       .  S
C1489      F1504   1.380       .  S
C1491      F1499   1.381       .  S
C1491      F1500   1.384       .  S
C1491      F1501   1.385       .  S
C1505      C1506   1.389       .  A
C1505      C1510   1.408       .  A
C1505      H1515   1.086       .  S
C1506      C1511   1.479       .  S
C1506      C1507   1.402       .  A
C1507      C1512   1.521       .  S
C1507      C1508   1.405       .  A
C1508      C1509   1.420       .  A
C1508      H1513   1.047       .  S
C1509      C1510   1.468       .  A
C1511      C1516   1.412       .  A
C1511      C1520   1.401       .  A
C1512      F1528   1.382       .  S
C1512      F1529   1.381       .  S
C1512      F1530   1.383       .  S
C1514      F1525   1.383       .  S
C1514      F1526   1.383       .  S
C1514      F1527   1.372       .  S
C1516      C1521   1.517       .  S
C1516      C1517   1.400       .  A
C1517      C1518   1.408       .  A
C1517      H1522   1.083       .  S
C1518      C1519   1.422       .  A
C1519      C1523   1.517       .  S
C1519      C1520   1.408       .  A
C1520      H1524   1.083       .  S
C1521      F1534   1.385       .  S
C1521      F1535   1.378       .  S
C1523      F1531   1.383       .  S
C1523      F1532   1.383       .  S
C1523      F1533   1.385       .  S
C1537      C1538   1.381       .  A
C1537      C1542   1.414       .  A
C1537      H1547   1.081       .  S
C1538      C1543   1.491       .  S
C1538      C1539   1.399       .  A
C1539      C1544   1.519   1_565  S
C1539      C1540   1.411       .  A
C1540      C1541   1.436       .  A
C1540      H1545   1.076   1_565  S
C1541      C1542   1.483       .  A
C1543      C1548   1.418       .  A
C1543      C1552   1.399       .  A
C1544      F1560   1.384       .  S
C1544      F1561   1.382       .  S
C1544      F1562   1.382   1_545  S
C1546      F1557   1.375       .  S
C1546      F1558   1.386       .  S
C1546      F1559   1.372       .  S
C1548      C1553   1.515       .  S
C1548      C1549   1.410       .  A
C1549      C1550   1.404       .  A
C1549      H1554   1.083       .  S
C1550      C1551   1.426       .  A
C1551      C1555   1.520       .  S
C1551      C1552   1.407       .  A
C1552      H1556   1.083       .  S
C1553      F1566   1.384       .  S
C1553      F1568   1.382       .  S
C1555      F1563   1.382       .  S
C1555      F1564   1.382       .  S
C1555      F1565   1.385       .  S
C1569      C1570   1.382       .  A
C1569      C1574   1.409   1_565  A
C1569      H1579   1.087       .  S
C1570      C1575   1.476       .  S
C1570      C1571   1.396       .  A
C1571      C1576   1.527       .  S
C1571      C1572   1.407       .  A
C1572      C1573   1.420       .  A
C1572      H1577   1.038       .  S
C1573      C1574   1.481   1_565  A
C1574      C1578   1.548       .  S
C1575      C1580   1.411       .  A
C1575      C1584   1.396       .  A
C1576      F1592   1.382       .  S
C1576      F1593   1.384       .  S
C1576      F1594   1.381       .  S
C1578      F1589   1.382       .  S
C1578      F1591   1.387       .  S
C1580      C1585   1.520       .  S
C1580      C1581   1.405       .  A
C1581      C1582   1.410       .  A
C1581      H1586   1.082       .  S
C1582      C1583   1.431       .  A
C1583      C1587   1.526       .  S
C1583      C1584   1.401       .  A
C1584      H1588   1.083       .  S
C1585      F1598   1.384       .  S
C1585      F1599   1.381   1_565  S
C1585      F1600   1.382       .  S
C1587      F1595   1.380       .  S
C1587      F1596   1.384       .  S
C1587      F1597   1.385       .  S
C1601      C1602   1.404       .  A
C1601      C1606   1.409       .  A
C1601      H1611   1.083       .  S
C1602      C1607   1.491       .  S
C1602      C1603   1.413       .  A
C1603      C1608   1.520       .  S
C1603      C1604   1.410       .  A
C1604      C1605   1.412       .  A
C1604      H1609   1.082       .  S
C1605      C1606   1.422       .  A
C1606      C1610   1.519       .  S
C1607      C1612   1.402       .  A
C1607      C1616   1.387       .  A
C1608      F1624   1.382       .  S
C1608      F1625   1.382       .  S
C1608      F1626   1.384       .  S
C1610      F1621   1.385       .  S
C1610      F1622   1.382       .  S
C1610      F1623   1.384       .  S
C1612      C1617   1.522       .  S
C1612      C1613   1.411       .  A
C1613      C1614   1.415       .  A
C1613      H1618   1.033       .  S
C1614      C1615   1.470       .  A
C1615      C1619   1.533       .  S
C1615      C1616   1.413       .  A
C1616      H1620   1.083       .  S
C1617      F1630   1.381       .  S
C1617      F1631   1.381       .  S
C1617      F1632   1.382       .  S
C1619      F1627   1.361       .  S
C1619      F1629   1.387       .  S
C1633      C1634   1.392       .  A
C1633      C1638   1.416       .  A
C1633      H1643   1.085       .  S
C1634      C1639   1.503       .  S
C1634      C1635   1.406       .  A
C1635      C1640   1.522       .  S
C1635      C1636   1.416       .  A
C1636      C1637   1.429       .  A
C1636      H1641   1.048   1_565  S
C1637      C1638   1.453       .  A
C1639      C1644   1.419       .  A
C1639      C1648   1.406       .  A
C1640      F1656   1.382       .  S
C1640      F1657   1.382       .  S
C1640      F1658   1.382   1_554  S
C1642      F1653   1.385   1_665  S
C1642      F1654   1.376       .  S
C1642      F1655   1.365   1_565  S
C1644      C1649   1.521       .  S
C1644      C1645   1.413       .  A
C1645      C1646   1.406       .  A
C1645      H1650   1.082       .  S
C1646      C1647   1.419       .  A
C1647      C1651   1.518       .  S
C1647      C1648   1.416       .  A
C1648      H1652   1.081       .  S
C1649      F1662   1.384   1_565  S
C1649      F1663   1.382   1_565  S
C1651      F1659   1.382       .  S
C1651      F1660   1.383       .  S
C1651      F1661   1.385       .  S
C1665      C1666   1.411       .  A
C1665      C1670   1.414       .  A
C1665      H1675   1.083       .  S
C1666      C1671   1.496       .  S
C1666      C1667   1.419       .  A
C1667      C1672   1.519       .  S
C1667      C1668   1.403       .  A
C1668      C1669   1.402       .  A
C1668      H1673   1.082       .  S
C1669      C1670   1.413       .  A
C1670      C1674   1.516       .  S
C1671      C1676   1.404       .  A
C1671      C1680   1.380       .  A
C1672      F1689   1.381       .  S
C1672      F1690   1.381       .  S
C1674      F1685   1.383       .  S
C1674      F1686   1.384       .  S
C1674      F1687   1.384       .  S
C1676      C1681   1.517       .  S
C1676      C1677   1.420       .  A
C1677      C1678   1.441       .  A
C1677      H1682   1.058       .  S
C1678      C1679   1.468       .  A
C1679      C1680   1.407       .  A
C1680      H1684   1.088       .  S
C1681      F1694   1.383       .  S
C1681      F1695   1.381       .  S
C1681      F1696   1.382       .  S
C1683      F1692   1.340       .  S
C1683      F1693   1.381       .  S
C1697      C1698   1.401       .  A
C1697      C1702   1.408       .  A
C1697      H1707   1.083       .  S
C1698      C1703   1.489       .  S
C1698      C1699   1.423       .  A
C1699      C1704   1.515       .  S
C1699      C1700   1.403       .  A
C1700      C1701   1.395       .  A
C1700      H1705   1.084       .  S
C1701      C1702   1.421       .  A
C1702      C1706   1.520       .  S
C1703      C1708   1.408       .  A
C1703      C1712   1.396       .  A
C1704      F1720   1.381       .  S
C1704      F1721   1.381       .  S
C1704      F1722   1.385       .  S
C1706      F1717   1.382       .  S
C1706      F1718   1.385       .  S
C1706      F1719   1.382       .  S
C1708      C1713   1.522       .  S
C1708      C1709   1.408       .  A
C1709      C1710   1.428       .  A
C1709      H1714   1.073       .  S
C1710      C1711   1.461       .  A
C1711      C1712   1.414       .  A
C1712      H1716   1.085       .  S
C1713      F1726   1.385       .  S
C1713      F1727   1.382       .  S
C1713      F1728   1.382       .  S
C1715      F1723   1.385       .  S
C1715      F1724   1.371   1_554  S
C1715      F1725   1.381   1_654  S
