geometry optimzed in LAMMPS
_audit_creation_date              2020-12-01 
_audit_creation_method            'lammps2cif' 
_symmetry_space_group_name_H-M    'P1' 
_symmetry_Int_Tables_number       1 
_symmetry_cell_setting            triclinic 
loop_ 
_symmetry_equiv_pos_as_xyz 
  x,y,z 
_cell_length_a                    25.69680598 
_cell_length_b                    26.639239859986546 
_cell_length_c                    26.55117494016792 
_cell_angle_alpha                 90.31897568224176 
_cell_angle_beta                  89.98715856622573 
_cell_angle_gamma                 80.59215541100909 
loop_ 
_atom_site_label 
_atom_site_type_symbol 
_atom_site_fract_x 
_atom_site_fract_y 
_atom_site_fract_z 
_atom_site_charge 
C1          C  0.91657977  0.89878406  0.65116268     0.85900
C2          C  0.93740646  0.92970170  0.60910982    -0.54300
C3          C  0.91194700  0.92872090  0.56380960     0.08800
C4          C  0.86762390  0.89418889  0.56505484     0.19800
C5          C  0.85671113  0.91816314  0.65311313    -0.55100
C6          C  0.83053959  0.91648664  0.60845596     0.08900
C7          C  0.91981226  0.84466905  0.62912280    -0.54600
C8          C  0.89351379  0.84142939  0.58529062     0.09500
H9          H  0.97004451  0.95019071  0.61494700     0.14000
H10         H  0.84701972  0.89012779  0.52919283    -0.00300
H11         H  0.83626791  0.93030904  0.68799655     0.14300
H12         H  0.93548761  0.80992796  0.64852734     0.14100
C13         C  0.42092240  0.49575026  0.65860913     0.85900
C14         C  0.39850804  0.46491599  0.61736422    -0.54300
C15         C  0.41882277  0.46956620  0.57019963     0.08800
C16         C  0.46104622  0.50658687  0.56946566     0.19800
C17         C  0.48137398  0.47977196  0.65526130    -0.55100
C18         C  0.50236103  0.48380123  0.60851113     0.08900
C19         C  0.41226648  0.55082072  0.63906902    -0.54600
C20         C  0.43537174  0.55770348  0.59435807     0.09500
H21         H  0.36937409  0.44108065  0.62560115     0.14000
H22         H  0.47892329  0.51201929  0.53238926    -0.00300
H23         H  0.50603319  0.46847954  0.68780796     0.14300
H24         H  0.39623743  0.58391187  0.66125736     0.14100
C25         C  0.87842287  0.55172771  0.00228405     0.85900
C26         C  0.82089214  0.54492412  0.01219677    -0.54300
C27         C  0.81036653  0.49777590  0.00060233     0.08800
C28         C  0.85887056  0.46044309  0.98201403     0.19800
C29         C  0.91069890  0.51016523  0.03375157    -0.55100
C30         C  0.90154276  0.46199829  0.02410805     0.08900
C31         C  0.88712654  0.53570170  0.94721183    -0.54600
C32         C  0.87754187  0.48836187  0.93612088     0.09500
H33         H  0.78916633  0.57422465  0.02431073     0.14000
H34         H  0.84963903  0.42242089  0.97217562    -0.00300
H35         H  0.93698003  0.51956142  0.06281597     0.14300
H36         H  0.89717555  0.56119262  0.91824178     0.14100
C37         C  0.46126307  0.84002960  0.00415699     0.85900
C38         C  0.51805008  0.84440567  0.01802890    -0.54300
C39         C  0.53148761  0.89090981  0.00932308     0.08800
C40         C  0.48487475  0.93060633  0.99012380     0.19800
C41         C  0.42860503  0.88161910  0.03701917    -0.55100
C42         C  0.44008448  0.92948249  0.03018158     0.08900
C43         C  0.45275124  0.85927111  0.95049991    -0.54600
C44         C  0.46583740  0.90561958  0.94224189     0.09500
H45         H  0.54637055  0.81231869  0.03112577     0.14000
H46         H  0.49586090  0.96823965  0.98223202    -0.00300
H47         H  0.40039525  0.87399216  0.06470223     0.14300
H48         H  0.43894461  0.83682991  0.92045097     0.14100
C49         C  0.93832946  0.97214285  0.42853579     0.85900
C50         C  0.99817249  0.96257111  0.44023772    -0.54300
C51         C  0.01124359  0.97678607  0.48724236     0.08800
C52         C  0.96321203  0.00035667  0.51888206     0.19800
C53         C  0.91349792  0.94502686  0.47068730    -0.55100
C54         C  0.92643077  0.95819302  0.51842067     0.08900
C55         C  0.92258024  0.02921737  0.43909177    -0.54600
C56         C  0.93684811  0.04514542  0.48506603     0.09500
H57         H  0.02901346  0.95006607  0.41299843     0.14000
H58         H  0.97412633  0.01299201  0.55674121    -0.00300
H59         H  0.89028489  0.91543661  0.46264397     0.14300
H60         H  0.90667266  0.05605859  0.41012081     0.14100
C61         C  0.95892922  0.32731227  0.07422106     0.85900
C62         C  0.92091041  0.36853313  0.04531881    -0.54300
C63         C  0.93001342  0.41721171  0.05307081     0.08800
C64         C  0.97653752  0.41972859  0.09051394     0.19800
C65         C  0.01348285  0.33644534  0.05695510    -0.55100
C66         C  0.02331209  0.38442094  0.06606981     0.08900
C67         C  0.95364128  0.34404858  0.12915233    -0.47800
C68         C  0.96403096  0.39125290  0.13844108     0.09500
H69         H  0.89174810  0.36048054  0.01863343     0.14000
H70         H  0.98576694  0.45795021  0.09909203    -0.00300
H71         H  0.04297349  0.30648042  0.04141512     0.14300
H72         H  0.94415115  0.31938950  0.15914884     0.14100
C73         C  0.38369954  0.06433637  0.08052857     0.85900
C74         C  0.41864231  0.02332255  0.04919738    -0.54300
C75         C  0.41176854  0.97447307  0.05952212     0.08800
C76         C  0.36860072  0.97199754  0.10113915     0.19800
C77         C  0.32797125  0.05377279  0.06826415    -0.55100
C78         C  0.31905077  0.00678054  0.08143793     0.08900
C79         C  0.39321002  0.04915916  0.13556935    -0.54600
C80         C  0.38520493  0.00158669  0.14680598     0.09500
H81         H  0.44331099  0.03254245  0.01883249     0.14000
H82         H  0.36073330  0.93384425  0.11171689    -0.00300
H83         H  0.29725361  0.08036625  0.05026118     0.14300
H84         H  0.40323066  0.07522776  0.16430218     0.14100
C85         C  0.39432461  0.42219415  0.43535054     0.85900
C86         C  0.40747889  0.36551350  0.44810299    -0.54300
C87         C  0.39282034  0.35206327  0.49493862     0.08800
C88         C  0.36452842  0.39916825  0.52545019     0.19800
C89         C  0.33442230  0.43367518  0.44412667    -0.55100
C90         C  0.31810781  0.42134780  0.49046592     0.08900
C91         C  0.41801407  0.45052711  0.47736945    -0.54600
C92         C  0.40266706  0.44022338  0.52499913     0.09500
H93         H  0.42385545  0.33729182  0.42026740     0.14000
H94         H  0.35193650  0.38933703  0.56332388    -0.00300
H95         H  0.30583879  0.44534229  0.41468438     0.14300
H96         H  0.44322015  0.47819993  0.46890514     0.14100
Zr97       Zr  0.88322306  0.87987664  0.97338078     2.17500
O98         O  0.83004850  0.84754817  0.90842277    -0.51900
O99         O  0.89821402  0.78850611  0.98600627    -0.75100
O100        O  0.91816293  0.88246510  0.88686597    -0.81900
O101        O  0.76862989  0.91364575  0.06823437    -0.83700
O102        O  0.99657227  0.91184461  0.88691746    -0.79300
O103        O  0.78712843  0.89066467  0.98680729    -0.90900
O104        O  0.95725732  0.76537664  0.04882023    -0.76900
O105        O  0.97526540  0.85967985  0.99177707    -0.86400
O106        O  0.88973151  0.86081095  0.06124319    -0.86100
O107        O  0.91887087  0.95541619  0.95342552    -0.72800
O108        O  0.83882002  0.95319066  0.01760290    -0.85000
Zr109      Zr  0.97643760  0.99045531  0.10360808     2.26400
Zr110      Zr  0.01104686  0.93536954  0.97329981     2.06300
Zr111      Zr  0.84819672  0.93502387  0.10531471     2.10000
Zr112      Zr  0.98156824  0.84214258  0.07980065     1.78800
O113        O  0.77956761  0.00480591  0.13063954    -0.93800
O114        O  0.06424816  0.79133532  0.05180006    -0.41600
O115        O  0.94015941  0.91587170  0.12389223    -0.78200
O116        O  0.01985839  0.91491736  0.06097786    -0.96900
O117        O  0.96808396  0.00981907  0.01627405    -0.90200
O118        O  0.88417443  0.01012542  0.08688481    -0.93000
C119        C  0.92479521  0.75587063  0.01531766     1.00700
C120        C  0.75490960  0.90079646  0.02416415     1.13600
C121        C  0.95845324  0.89548552  0.86453464     1.04400
O122        O  0.08532060  0.87370336  0.94341952    -0.95200
O123        O  0.09140958  0.95881822  0.00805873    -0.90900
O124        O  0.07076243  0.98849038  0.08716372    -0.84100
C125        C  0.10383338  0.97592300  0.05097006     1.11100
O126        O  0.81420308  0.02864186  0.92864876    -0.97200
Zr127      Zr  0.87561002  0.02688605  0.99894053     1.88900
O128        O  0.95565795  0.08296720  0.09487030    -0.73800
O129        O  0.03159611  0.00497597  0.92192402    -0.53100
O130        O  0.89339772  0.07997641  0.92861998    -0.97800
O131        O  0.79215324  0.07378127  0.03025618    -0.55000
O132        O  0.90220928  0.10275389  0.02788525    -0.74300
C133        C  0.93006005  0.11493129  0.06397340     0.98000
O134        O  0.02113923  0.02393902  0.17437788    -0.63200
O135        O  0.81676753  0.87347597  0.16056868    -0.58000
O136        O  0.94901808  0.97533687  0.18998415    -0.94600
O137        O  0.86882142  0.94977106  0.19232589    -0.93100
O138        O  0.95518415  0.79719326  0.15268948    -0.93400
O139        O  0.04658896  0.83204926  0.14727067    -0.92200
C140        C  0.90981934  0.96177598  0.21363508     1.16900
H141        H  0.87166017  0.83299632  0.06980289     0.32800
H142        H  0.05602200  0.90430717  0.07097809     0.43700
H143        H  0.86814659  0.03854332  0.10738605     0.37200
H144        H  0.91302780  0.96634764  0.91906515     0.33700
H145        H  0.05518291  0.77362540  0.02093168     0.25400
H146        H  0.06028320  0.98898007  0.89930622     0.31400
H147        H  0.93114498  0.08297940  0.93183848     0.37300
H148        H  0.91739549  0.81112541  0.15764384     0.31800
H149        H  0.78260831  0.89130806  0.17374043     0.30600
H150        H  0.75179353  0.98807377  0.14597916     0.32300
H151        H  0.78461895  0.10417596  0.00854262     0.31300
H152        H  0.05054434  0.86719966  0.15686945     0.35300
H153        H  0.05050242  0.99658992  0.18349842     0.28000
H154        H  0.85382026  0.82041983  0.89022494     0.32200
H155        H  0.79347109  0.06337830  0.92806511     0.35100
H156        H  0.80722585  0.84665189  0.13807002     0.27700
H157        H  0.03848920  0.05135501  0.16032303     0.40600
H158        H  0.07136210  0.84132093  0.94025348     0.30600
H159        H  0.08576985  0.81638755  0.03956478     0.38200
H160        H  0.80015643  0.08765083  0.06349320     0.30100
H161        H  0.00068301  0.01375617  0.89951684     0.30200
H162        H  0.82102197  0.87541394  0.88380362     0.30400
Zr163      Zr  0.84652805  0.51253448  0.59720118     2.17500
O164        O  0.78832701  0.58458607  0.63466115    -0.51900
O165        O  0.85849298  0.50073704  0.68973662    -0.75100
O166        O  0.75492447  0.49518503  0.59970522    -0.81900
O167        O  0.93956101  0.60080901  0.54047076    -0.83700
O168        O  0.75329941  0.41397988  0.57318685    -0.79300
O169        O  0.86150031  0.60158953  0.58055917    -0.90900
O170        O  0.92368105  0.43414713  0.70396979    -0.76900
O171        O  0.86749431  0.42358619  0.61438781    -0.86400
O172        O  0.93988387  0.49411885  0.60905723    -0.86100
O173        O  0.81926684  0.46887784  0.52365994    -0.72800
O174        O  0.88591261  0.53175191  0.51919856    -0.85000
Zr175      Zr  0.97359819  0.37887798  0.47531306     2.26400
Zr176      Zr  0.84118843  0.37960996  0.54197639     2.06300
Zr177      Zr  0.97885160  0.51243417  0.53059663     2.10000
Zr178      Zr  0.96062191  0.40507615  0.62470053     1.78800
O179        O  0.01098163  0.55934872  0.46185919    -0.93800
O180        O  0.94200915  0.32967322  0.66828216    -0.41600
O181        O  0.00012114  0.42357579  0.54746705    -0.78200
O182        O  0.93482305  0.35935841  0.55440336    -0.96900
O183        O  0.88032350  0.39816194  0.46353888    -0.90200
O184        O  0.95389018  0.46812474  0.45822080    -0.93000
C185        C  0.88769898  0.46959166  0.71933276     1.00700
C186        C  0.89670698  0.62461294  0.55959375     1.13600
C187        C  0.73059595  0.45748784  0.58990766     1.04400
O188        O  0.81642402  0.32434367  0.60745704    -0.95200
O189        O  0.87440784  0.29135237  0.51941742    -0.90900
O190        O  0.95377714  0.29017582  0.48140615    -0.84100
C191        C  0.91686427  0.26740461  0.49928515     1.11100
O192        O  0.78259705  0.55191532  0.43778946    -0.97200
Zr193      Zr  0.86082089  0.48727252  0.44743531     1.88900
O194        O  0.96341131  0.39235389  0.38284048    -0.73800
O195        O  0.78125320  0.35371992  0.47955436    -0.53100
O196        O  0.79103323  0.45361443  0.40273724    -0.97800
O197        O  0.87853395  0.56379218  0.40521435    -0.55000
O198        O  0.89874446  0.45883467  0.36812892    -0.74300
C199        C  0.93490868  0.42365905  0.35278272     0.98000
O200        O  0.04132199  0.31521765  0.43705356    -0.63200
O201        O  0.03192629  0.54899016  0.59262406    -0.58000
O202        O  0.06643536  0.39218028  0.48563199    -0.94600
O203        O  0.06843263  0.47273142  0.51351725    -0.93100
O204        O  0.03223014  0.43643211  0.66858980    -0.93400
O205        O  0.03835622  0.33997512  0.63398167    -0.92200
C206        C  0.09131108  0.42867980  0.49882430     1.16900
H207        H  0.95089536  0.51400942  0.63643892     0.32800
H208        H  0.94593723  0.32465230  0.56468267     0.43700
H209        H  0.97298744  0.47717748  0.42921845     0.37200
H210        H  0.78249969  0.47869937  0.51535805     0.33700
H211        H  0.95476237  0.33300884  0.70313002     0.25400
H212        H  0.76276525  0.32925154  0.49745596     0.31400
H213        H  0.80842369  0.42126108  0.38730091     0.37300
H214        H  0.03183650  0.42252154  0.70307712     0.31800
H215        H  0.05710282  0.51976609  0.60549637     0.30600
H216        H  0.04233154  0.57178172  0.47572721     0.32300
H217        H  0.91309875  0.55375207  0.38842350     0.31300
H218        H  0.03924983  0.31905716  0.60295200     0.35300
H219        H  0.05233719  0.28972431  0.46361295     0.28000
H220        H  0.76859667  0.56999778  0.66140909     0.32200
H221        H  0.77633909  0.55478242  0.40103499     0.35100
H222        H  0.05388031  0.56886105  0.57264580     0.27700
H223        H  0.02289840  0.29724782  0.41160750     0.40600
H224        H  0.80855329  0.34653705  0.63744934     0.30600
H225        H  0.90311698  0.33477817  0.67146298     0.38200
H226        H  0.88572469  0.58677044  0.43285331     0.30100
H227        H  0.75396120  0.38410982  0.47466441     0.30200
H228        H  0.76168790  0.59618207  0.60851048     0.30400
Zr229      Zr  0.46461171  0.50576419  0.98222425     2.17500
O230        O  0.52464654  0.53286578  0.92049711    -0.51900
O231        O  0.44710950  0.59813420  0.98912204    -0.75100
O232        O  0.43211376  0.50305883  0.89537918    -0.81900
O233        O  0.57916255  0.46368478  0.07641141    -0.83700
O234        O  0.35009820  0.48117419  0.89520415    -0.79300
O235        O  0.55970874  0.49228161  0.99716293    -0.90900
O236        O  0.39325266  0.62214342  0.05520731    -0.76900
O237        O  0.37286218  0.52918433  0.99925859    -0.86400
O238        O  0.45774048  0.52682469  0.06987156    -0.86100
O239        O  0.42740423  0.43116456  0.96121000    -0.72800
O240        O  0.50474104  0.43175473  0.02713901    -0.85000
Zr241      Zr  0.36437718  0.40188965  0.11104542     2.26400
Zr242      Zr  0.33529019  0.45488647  0.97996153     2.06300
Zr243      Zr  0.49602809  0.45204959  0.11455907     2.10000
Zr244      Zr  0.36555342  0.54789870  0.08709585     1.78800
O245        O  0.56395977  0.38608033  0.14786274    -0.93800
O246        O  0.28385968  0.59820053  0.05699725    -0.41600
O247        O  0.40398966  0.47436942  0.13168540    -0.78200
O248        O  0.32408869  0.47692991  0.06730218    -0.96900
O249        O  0.37378908  0.38002274  0.02414685    -0.90200
O250        O  0.45695740  0.37846934  0.09573155    -0.93000
C251        C  0.42177197  0.63193208  0.01863865     1.00700
C252        C  0.59261160  0.47788728  0.03285755     1.13600
C253        C  0.39011233  0.49398189  0.87311566     1.04400
O254        O  0.26206843  0.52067413  0.95660797    -0.95200
O255        O  0.25553988  0.42863340  0.01019043    -0.90900
O256        O  0.27099334  0.40223774  0.09082979    -0.84100
C257        C  0.24061947  0.41294629  0.05248812     1.11100
O258        O  0.53530766  0.34689151  0.94416432    -0.97200
Zr259      Zr  0.46614702  0.35894158  0.00812141     1.88900
O260        O  0.38274919  0.30985359  0.10662188    -0.73800
O261        O  0.31149609  0.39016217  0.92320946    -0.53100
O262        O  0.43913655  0.31390541  0.93493831    -0.97800
O263        O  0.54739386  0.30720802  0.03778469    -0.55000
O264        O  0.43784719  0.28507383  0.04099336    -0.74300
C265        C  0.40798452  0.27625392  0.07705798     0.98000
O266        O  0.31478908  0.37675496  0.18248644    -0.63200
O267        O  0.52455298  0.51897466  0.16553442    -0.58000
O268        O  0.38915392  0.41858838  0.19752819    -0.94600
O269        O  0.47237354  0.43719579  0.20093796    -0.93100
O270        O  0.38967979  0.59531802  0.15968972    -0.93400
O271        O  0.30076599  0.56144099  0.15479765    -0.92200
C272        C  0.42945721  0.42909423  0.22164381     1.16900
H273        H  0.47632623  0.55453616  0.07793817     0.32800
H274        H  0.28749333  0.48773239  0.07602928     0.43700
H275        H  0.47210164  0.35012233  0.11647624     0.37200
H276        H  0.43329039  0.42007431  0.92674065     0.33700
H277        H  0.27993761  0.63020968  0.07678798     0.25400
H278        H  0.28529235  0.40895407  0.89989991     0.31400
H279        H  0.45500257  0.27784644  0.93999508     0.37300
H280        H  0.42142702  0.57379274  0.17356491     0.31800
H281        H  0.54929207  0.50068844  0.19040412     0.30600
H282        H  0.57959744  0.40254148  0.17636319     0.32300
H283        H  0.53718186  0.28898327  0.06766016     0.31300
H284        H  0.29413816  0.52692418  0.16339918     0.35300
H285        H  0.28542382  0.40529334  0.18814805     0.28000
H286        H  0.50347496  0.56083089  0.90137552     0.32200
H287        H  0.54408050  0.30968838  0.93855543     0.35100
H288        H  0.54714200  0.53583291  0.14314830     0.27700
H289        H  0.29765755  0.34829302  0.17032920     0.40600
H290        H  0.24284190  0.53010645  0.98848651     0.30600
H291        H  0.29187922  0.60829266  0.02238668     0.38200
H292        H  0.56838956  0.33211601  0.05160585     0.30100
H293        H  0.34327673  0.37950713  0.90221396     0.30200
H294        H  0.53263678  0.50437469  0.89609800     0.30400
Zr295      Zr  0.48446653  0.88924985  0.60724910     2.17500
O296        O  0.54296243  0.81757085  0.64412200    -0.51900
O297        O  0.47180377  0.90413766  0.69917029    -0.75100
O298        O  0.57619330  0.90741929  0.60996240    -0.81900
O299        O  0.39032564  0.79935653  0.55680440    -0.83700
O300        O  0.57700971  0.98776404  0.58177355    -0.79300
O301        O  0.46985712  0.79935242  0.59402434    -0.90900
O302        O  0.40783443  0.97214089  0.71317272    -0.76900
O303        O  0.46320674  0.97879821  0.62273956    -0.86400
O304        O  0.39118966  0.90825200  0.62028962    -0.86100
O305        O  0.51160763  0.92999813  0.53250970    -0.72800
O306        O  0.44387108  0.86757275  0.53028643    -0.85000
Zr307      Zr  0.35567082  0.01975295  0.48554022     2.26400
Zr308      Zr  0.48979659  0.01950731  0.54899067     2.06300
Zr309      Zr  0.35119523  0.88747346  0.54317636     2.10000
Zr310      Zr  0.36982603  0.99772028  0.63390359     1.78800
O311        O  0.31807776  0.83669860  0.47768536    -0.93800
O312        O  0.38171623  0.07434615  0.68010610    -0.41600
O313        O  0.32894040  0.97685046  0.55822689    -0.78200
O314        O  0.39658077  0.04097117  0.56310375    -0.96900
O315        O  0.44880866  0.99941919  0.47216442    -0.90200
O316        O  0.37550844  0.92989256  0.46953200    -0.93000
C317        C  0.44290460  0.93617336  0.72849547     1.00700
C318        C  0.43380148  0.77592800  0.57500144     1.13600
C319        C  0.60014602  0.94520335  0.59956810     1.04400
O320        O  0.51562660  0.08183570  0.60734910    -0.95200
O321        O  0.45846364  0.10595688  0.52291376    -0.90900
O322        O  0.37619787  0.10827630  0.49035851    -0.84100
C323        C  0.41553316  0.13001072  0.50438704     1.11100
O324        O  0.54467364  0.84219959  0.45261187    -0.97200
Zr325      Zr  0.46849917  0.90995219  0.45736924     1.88900
O326        O  0.36618649  0.00601926  0.39336928    -0.73800
O327        O  0.55079110  0.03621989  0.48331176    -0.53100
O328        O  0.54078404  0.93910855  0.41266084    -0.97800
O329        O  0.45009743  0.83460521  0.41265267    -0.55000
O330        O  0.43262226  0.94064962  0.37798917    -0.74300
C331        C  0.39607509  0.97583848  0.36319112     0.98000
O332        O  0.29390569  0.08943042  0.44933380    -0.63200
O333        O  0.29769521  0.85649495  0.60826611    -0.58000
O334        O  0.26220222  0.00573484  0.49427969    -0.94600
O335        O  0.26203157  0.92579486  0.52326683    -0.93100
O336        O  0.29875945  0.96495444  0.67699275    -0.93400
O337        O  0.29181528  0.06350368  0.63532623    -0.92200
C338        C  0.23799748  0.96877471  0.50736604     1.16900
H339        H  0.38056444  0.88924330  0.64828878     0.32800
H340        H  0.38640743  0.07603059  0.57308773     0.43700
H341        H  0.35621556  0.92037978  0.44077048     0.37200
H342        H  0.54847277  0.91990813  0.52457373     0.33700
H343        H  0.36487187  0.07140440  0.71328097     0.25400
H344        H  0.57033004  0.06166178  0.49839618     0.31400
H345        H  0.52495832  0.97156592  0.39676108     0.37300
H346        H  0.28433365  0.99179243  0.70149257     0.31800
H347        H  0.26938207  0.88547476  0.61582143     0.30600
H348        H  0.28804764  0.82367575  0.49347078     0.32300
H349        H  0.46056759  0.83923448  0.37729082     0.31300
H350        H  0.28194366  0.06900535  0.59948167     0.35300
H351        H  0.27083999  0.07327845  0.42664567     0.28000
H352        H  0.55630756  0.83100449  0.67556501     0.32200
H353        H  0.55460963  0.83919942  0.41655989     0.35100
H354        H  0.27952338  0.83134052  0.59084531     0.27700
H355        H  0.27088949  0.10362777  0.47762304     0.40600
H356        H  0.51717860  0.06511709  0.64064064     0.30600
H357        H  0.41996898  0.06991805  0.68743080     0.38200
H358        H  0.41116440  0.83834735  0.41162950     0.30100
H359        H  0.57715668  0.00473041  0.48100489     0.30200
H360        H  0.57396374  0.81080196  0.62146541     0.30400
C361        C  0.23597664  0.39186383  0.46150724    -0.20900
C362        C  0.26104571  0.41834019  0.49797165    -0.07500
C363        C  0.23035636  0.44493388  0.53650971     0.13400
C364        C  0.17543736  0.44580270  0.53668932    -0.21000
C365        C  0.15013041  0.42044515  0.49939967    -0.07500
C366        C  0.18132277  0.39202160  0.46199665     0.13400
C367        C  0.15744244  0.36346833  0.42126356    -0.24300
H368        H  0.25965284  0.37100299  0.43203270     0.14700
H369        H  0.15188212  0.46731558  0.56582915     0.14700
C370        C  0.25487945  0.47421454  0.57609599    -0.24300
H371        H  0.18750102  0.34571644  0.39365909     0.04900
H372        H  0.12703863  0.38975286  0.40040814     0.08100
H373        H  0.13951224  0.33246769  0.43835073     0.08100
H374        H  0.27695362  0.50185350  0.55806488     0.08100
H375        H  0.28198549  0.44740002  0.59951059     0.08100
H376        H  0.22469698  0.49564750  0.60150547     0.04900
C377        C  0.37729891  0.46761385  0.35160873    -0.20900
C378        C  0.41196306  0.43445011  0.38219129    -0.07500
C379        C  0.45969523  0.40931685  0.35997273     0.13400
C380        C  0.46486686  0.40861758  0.30732518    -0.21000
C381        C  0.42496646  0.43441616  0.27671541    -0.07500
C382        C  0.38220194  0.46673428  0.29919642     0.13400
C383        C  0.34170375  0.50065303  0.26825437    -0.24300
H384        H  0.34495535  0.49338852  0.36828029     0.14700
H385        H  0.49976928  0.38690604  0.29006527     0.14700
C386        C  0.50601017  0.38315162  0.39003757    -0.24300
H387        H  0.31279843  0.52559893  0.29228746     0.04900
H388        H  0.31919149  0.47727831  0.24463306     0.08100
H389        H  0.36164297  0.52541789  0.24387469     0.08100
H390        H  0.51265418  0.34167143  0.38179157     0.08100
H391        H  0.50090629  0.38918753  0.43113431     0.08100
H392        H  0.54193765  0.39872433  0.37925059     0.04900
C393        C  0.44686830  0.26516325  0.49135612    -0.20900
C394        C  0.39965864  0.29573496  0.50749060    -0.07500
C395        C  0.35880174  0.27027788  0.52554318     0.13400
C396        C  0.36451456  0.21660237  0.52230487    -0.21000
C397        C  0.41052539  0.18681518  0.50332948    -0.07500
C398        C  0.45289389  0.21170367  0.48902522     0.13400
C399        C  0.50413242  0.18247370  0.46922198    -0.24300
H400        H  0.47910627  0.28359626  0.47867197     0.14700
H401        H  0.33293056  0.19752734  0.53545632     0.14700
C402        C  0.30850595  0.29832827  0.54746890    -0.24300
H403        H  0.53100585  0.20823035  0.45572372     0.04900
H404        H  0.49625140  0.15791781  0.43711394     0.08100
H405        H  0.52515355  0.15875262  0.49945861     0.08100
H406        H  0.28756236  0.32293225  0.51852153     0.08100
H407        H  0.31687187  0.32058120  0.58099947     0.08100
H408        H  0.28160946  0.27208739  0.55979419     0.04900
C409        C  0.34664478  0.15820293  0.07988918    -0.20900
C410        C  0.39143167  0.11964860  0.07501154    -0.07500
C411        C  0.44221394  0.13442230  0.07807337     0.13400
C412        C  0.44607378  0.18607379  0.08128209    -0.21000
C413        C  0.40114872  0.22344161  0.08273758    -0.07500
C414        C  0.35079063  0.20960821  0.08233732     0.13400
C415        C  0.30114031  0.24882139  0.08307769    -0.24300
H416        H  0.30756587  0.14914560  0.08418503     0.14700
H417        H  0.48463275  0.19766173  0.08176701     0.14700
C418        C  0.49305213  0.09704590  0.07877545    -0.24300
H419        H  0.26500104  0.23110332  0.08024514     0.04900
H420        H  0.30116076  0.27512507  0.05076231     0.08100
H421        H  0.29874713  0.27076382  0.11883653     0.08100
H422        H  0.49156651  0.06712802  0.10734998     0.08100
H423        H  0.52734037  0.11578693  0.08844718     0.08100
H424        H  0.50113237  0.08031338  0.04080127     0.04900
C425        C  0.34019476  0.00011308  0.22954880    -0.20900
C426        C  0.38585494  0.98575691  0.20033226    -0.07500
C427        C  0.43386701  0.96772682  0.22453495     0.13400
C428        C  0.43540096  0.96485661  0.27729303    -0.21000
C429        C  0.39020852  0.98090259  0.30723018    -0.07500
C430        C  0.34174125  0.99852075  0.28264599     0.13400
C431        C  0.29160897  0.01580796  0.31169736    -0.24300
H432        H  0.30357081  0.01486755  0.21077362     0.14700
H433        H  0.47286198  0.95126879  0.29530322     0.14700
C434        C  0.48386363  0.95299289  0.19454137    -0.24300
H435        H  0.25726062  0.02629233  0.28628473     0.04900
H436        H  0.29559152  0.04994954  0.33458081     0.08100
H437        H  0.28313165  0.98480450  0.33662671     0.08100
H438        H  0.49288248  0.98648947  0.17358796     0.08100
H439        H  0.47885607  0.92233834  0.16732503     0.08100
H440        H  0.51811742  0.93897726  0.21905841     0.04900
C441        C  0.17017782  0.02065942  0.09102067    -0.20900
C442        C  0.15987997  0.98040753  0.06046139    -0.07500
C443        C  0.20299808  0.94454899  0.04229695     0.13400
C444        C  0.25497100  0.95232663  0.05214130    -0.21000
C445        C  0.26479637  0.99446623  0.08014162    -0.07500
C446        C  0.22172531  0.02776762  0.10178827     0.13400
C447        C  0.22813128  0.07109012  0.13695415    -0.24300
H448        H  0.13757401  0.04723966  0.10659417     0.14700
H449        H  0.28801960  0.92645730  0.03640658     0.14700
C450        C  0.19486012  0.89754502  0.01351489    -0.24300
H451        H  0.20693173  0.06685989  0.17274505     0.04900
H452        H  0.21097945  0.10781761  0.11939870     0.08100
H453        H  0.26960752  0.07253919  0.14700686     0.08100
H454        H  0.17591929  0.90831125  0.97676848     0.08100
H455        H  0.16979274  0.87559887  0.03580965     0.08100
H456        H  0.23282960  0.87219512  0.00565276     0.04900
C457        C  0.91925991  0.44079715  0.20903648    -0.20900
C458        C  0.96435436  0.40931847  0.19142693    -0.07500
C459        C  0.00147488  0.38518975  0.22672551     0.13400
C460        C  0.99090261  0.39064309  0.27859973    -0.21000
C461        C  0.94438081  0.42034612  0.29682169    -0.07500
C462        C  0.90855833  0.44698694  0.26087638     0.13400
C463        C  0.85763276  0.48068794  0.27555271    -0.24300
H464        H  0.89059716  0.45835240  0.18177042     0.14700
H465        H  0.01943174  0.37118206  0.30493940     0.14700
C466        C  0.05247885  0.35279254  0.21084393    -0.24300
H467        H  0.83439054  0.49611058  0.24218821     0.04900
H468        H  0.86607933  0.51390472  0.29767149     0.08100
H469        H  0.83250514  0.45861235  0.29755272     0.08100
H470        H  0.05846789  0.35276015  0.16960382     0.08100
H471        H  0.05306676  0.31302151  0.22340815     0.08100
H472        H  0.08608581  0.36780067  0.22837832     0.04900
C473        C  0.09930225  0.42066264  0.09934073    -0.20900
C474        C  0.07660002  0.39785449  0.05897251    -0.07500
C475        C  0.10722171  0.38341813  0.01537727     0.13400
C476        C  0.16079772  0.38762685  0.01539105    -0.21000
C477        C  0.18425769  0.40830601  0.05668217    -0.07500
C478        C  0.15240039  0.42708404  0.09847078     0.13400
C479        C  0.17179965  0.45561555  0.14200527    -0.24300
H480        H  0.07569861  0.43298858  0.13234246     0.14700
H481        H  0.18439482  0.37513990  0.98238300     0.14700
C482        C  0.08455531  0.36506841  0.96757917    -0.24300
H483        H  0.14519077  0.49257129  0.14717287     0.04900
H484        H  0.21184438  0.46469466  0.13642574     0.08100
H485        H  0.17132550  0.43306481  0.17699835     0.08100
H486        H  0.04105873  0.36818036  0.96874940     0.08100
H487        H  0.10234221  0.32484768  0.96018334     0.08100
H488        H  0.09384295  0.38872445  0.93552220     0.04900
C489        C  0.97909526  0.18204718  0.09199885    -0.20900
C490        C  0.93457317  0.16931903  0.06821951    -0.07500
C491        C  0.89709340  0.20847181  0.04685260     0.13400
C492        C  0.90668868  0.25856193  0.04815768    -0.21000
C493        C  0.95216830  0.27160878  0.07064529    -0.07500
C494        C  0.98813431  0.23221958  0.09458853     0.13400
C495        C  0.03625676  0.23995763  0.12463180    -0.24300
H496        H  0.00764611  0.15238563  0.10885454     0.14700
H497        H  0.87676617  0.28729904  0.03277020     0.14700
C498        C  0.84569574  0.19891852  0.02392434    -0.24300
H499        H  0.03318103  0.22492506  0.16326933     0.04900
H500        H  0.04197205  0.27964225  0.12913128     0.08100
H501        H  0.07220736  0.21871889  0.10642003     0.08100
H502        H  0.82414006  0.17847499  0.05122511     0.08100
H503        H  0.85315259  0.17672389  0.98843996     0.08100
H504        H  0.81931407  0.23483582  0.01410884     0.04900
C505        C  0.90997112  0.12707347  0.53220613    -0.20900
C506        C  0.93929489  0.10079785  0.49305844    -0.07500
C507        C  0.96440216  0.12952826  0.45802340     0.13400
C508        C  0.95642193  0.18309798  0.46122421    -0.21000
C509        C  0.92452687  0.20988414  0.49868074    -0.07500
C510        C  0.90211682  0.18083073  0.53557062     0.13400
C511        C  0.86991307  0.20563714  0.57911012    -0.24300
H512        H  0.89104011  0.10546838  0.55913817     0.14700
H513        H  0.97505557  0.20416908  0.43356360     0.14700
C514        C  0.00047459  0.10538088  0.41663940    -0.24300
H515        H  0.85905936  0.17712185  0.60584472     0.04900
H516        H  0.83258496  0.22803171  0.56507752     0.08100
H517        H  0.89291656  0.23057523  0.60034755     0.08100
H518        H  0.03886694  0.11924897  0.41916569     0.08100
H519        H  0.00932832  0.06347470  0.41894280     0.08100
H520        H  0.98243807  0.11610317  0.37941170     0.04900
C521        C  0.08832437  0.02078316  0.50402331    -0.20900
C522        C  0.06762746  0.97524282  0.50100349    -0.07500
C523        C  0.10239025  0.92857952  0.50259728     0.13400
C524        C  0.15695607  0.92843421  0.50455155    -0.21000
C525        C  0.17874453  0.97384980  0.50500910    -0.07500
C526        C  0.14332957  0.02082955  0.50579639     0.13400
C527        C  0.16261481  0.07113096  0.50839789    -0.24300
H528        H  0.06138321  0.05656154  0.50293010     0.14700
H529        H  0.18281237  0.89198206  0.50478716     0.14700
C530        C  0.08186008  0.87863028  0.50253594    -0.24300
H531        H  0.12944643  0.10352076  0.51102667     0.04900
H532        H  0.18511297  0.07642682  0.47377142     0.08100
H533        H  0.18791196  0.07246296  0.54211416     0.08100
H534        H  0.06084636  0.87363065  0.46684683     0.08100
H535        H  0.05430192  0.87783631  0.53464963     0.08100
H536        H  0.11423429  0.84571326  0.50630151     0.04900
C537        C  0.87096754  0.97901030  0.29905489    -0.20900
C538        C  0.91354354  0.95714933  0.26887065    -0.07500
C539        C  0.95812041  0.92845516  0.29185682     0.13400
C540        C  0.96169560  0.92770267  0.34438960    -0.21000
C541        C  0.92359985  0.95764849  0.37485363    -0.07500
C542        C  0.87486772  0.97869656  0.35186506     0.13400
C543        C  0.82641363  0.00155822  0.38123381    -0.24300
H544        H  0.83495198  0.99764747  0.28136090     0.14700
H545        H  0.99535849  0.90420370  0.36116351     0.14700
C546        C  0.00181923  0.89785377  0.26129758    -0.24300
H547        H  0.81581247  0.04261664  0.37225993     0.04900
H548        H  0.79300074  0.98203731  0.37049442     0.08100
H549        H  0.83137487  0.99745649  0.42244315     0.08100
H550        H  0.02202648  0.92346841  0.23827544     0.08100
H551        H  0.98524354  0.87086576  0.23634310     0.08100
H552        H  0.03216502  0.87540129  0.28558612     0.04900
C553        C  0.40403710  0.77570112  0.02989666    -0.20900
C554        C  0.45029004  0.78575090  0.00654972    -0.07500
C555        C  0.48311367  0.74492235  0.98112930     0.13400
C556        C  0.47233287  0.69557945  0.98589244    -0.21000
C557        C  0.42797931  0.68550837  0.01200922    -0.07500
C558        C  0.39204139  0.72658917  0.03255444     0.13400
C559        C  0.33983247  0.72012046  0.05578586    -0.24300
H560        H  0.37527462  0.80612162  0.04465774     0.14700
H561        H  0.49916646  0.66458014  0.96862744     0.14700
C562        C  0.52936856  0.75045166  0.94742540    -0.24300
H563        H  0.31486218  0.75721629  0.06469036     0.04900
H564        H  0.34616309  0.69910013  0.09178907     0.08100
H565        H  0.31737172  0.69976286  0.02898303     0.08100
H566        H  0.52366283  0.73332101  0.90999799     0.08100
H567        H  0.56630654  0.72989059  0.96423101     0.08100
H568        H  0.53481038  0.78987011  0.94002914     0.04900
C569        C  0.62452947  0.86179358  0.98450613    -0.20900
C570        C  0.58791153  0.89731317  0.01092564    -0.07500
C571        C  0.60644442  0.93413365  0.04123610     0.13400
C572        C  0.66098454  0.93486785  0.04382647    -0.21000
C573        C  0.69769031  0.89973309  0.01660612    -0.07500
C574        C  0.67874210  0.86312628  0.98588186     0.13400
C575        C  0.71490065  0.82427633  0.95543000    -0.24300
H576        H  0.61062485  0.83207251  0.96293216     0.14700
H577        H  0.67508639  0.96291415  0.06770886     0.14700
C578        C  0.56925242  0.97058139  0.07308875    -0.24300
H579        H  0.69324008  0.79673268  0.93634829     0.04900
H580        H  0.74493803  0.80240082  0.98015258     0.08100
H581        H  0.73407507  0.84377927  0.92568288     0.08100
H582        H  0.54669922  0.94904242  0.09842892     0.08100
H583        H  0.54155369  0.99537606  0.04853694     0.08100
H584        H  0.59045083  0.99529654  0.09661887     0.04900
C585        C  0.41214137  0.93688456  0.86899082    -0.20900
C586        C  0.46257722  0.92529990  0.88993875    -0.07500
C587        C  0.50692911  0.91829347  0.85752602     0.13400
C588        C  0.49976602  0.92253992  0.80505790    -0.21000
C589        C  0.44911124  0.93237232  0.78404915    -0.07500
C590        C  0.40463417  0.94009662  0.81674216     0.13400
C591        C  0.34877560  0.94867139  0.79714966    -0.24300
H592        H  0.37816468  0.94031101  0.89377753     0.14700
H593        H  0.53378713  0.91693697  0.78027684     0.14700
C594        C  0.56158063  0.90279407  0.87784011    -0.24300
H595        H  0.31948726  0.94841464  0.82787988     0.04900
H596        H  0.34341399  0.91803307  0.77003736     0.08100
H597        H  0.33980133  0.98634418  0.77874621     0.08100
H598        H  0.56412262  0.86487311  0.89531419     0.08100
H599        H  0.57026638  0.93117186  0.90604607     0.08100
H600        H  0.59195125  0.89989794  0.84772786     0.04900
C601        C  0.83217599  0.48217005  0.85404683    -0.20900
C602        C  0.87889936  0.47203123  0.88247646    -0.07500
C603        C  0.92755451  0.46047683  0.85699330     0.13400
C604        C  0.92856079  0.46117424  0.80422014    -0.21000
C605        C  0.88218374  0.47341384  0.77535141    -0.07500
C606        C  0.83316403  0.48330353  0.80083605     0.13400
C607        C  0.78196879  0.49468193  0.77238056    -0.24300
H608        H  0.79488706  0.49150137  0.87359533     0.14700
H609        H  0.96647115  0.45264405  0.78541299     0.14700
C610        C  0.97937240  0.44832847  0.88458160    -0.24300
H611        H  0.74743296  0.49979702  0.79816277     0.04900
H612        H  0.77829204  0.46280368  0.74619592     0.08100
H613        H  0.78065504  0.53035489  0.75070662     0.08100
H614        H  0.97450197  0.44720122  0.92604784     0.08100
H615        H  0.00436324  0.47739604  0.87566272     0.08100
H616        H  0.00023141  0.41039868  0.87234433     0.04900
C617        C  0.74373244  0.44914500  0.03409314    -0.20900
C618        C  0.75557291  0.48727754  0.00205158    -0.07500
C619        C  0.71401064  0.51929392  0.97731583     0.13400
C620        C  0.66181032  0.51471345  0.98820153    -0.21000
C621        C  0.64938376  0.47854487  0.02248147    -0.07500
C622        C  0.69112828  0.44419752  0.04467241     0.13400
C623        C  0.68101003  0.40192102  0.07893665    -0.24300
H624        H  0.77577629  0.42452581  0.05256959     0.14700
H625        H  0.63041345  0.54052310  0.97012878     0.14700
C626        C  0.72277647  0.55890361  0.93914881    -0.24300
H627        H  0.71822168  0.37691726  0.08974348     0.04900
H628        H  0.65558094  0.37795283  0.05953220     0.08100
H629        H  0.66172846  0.41798138  0.11416610     0.08100
H630        H  0.76483808  0.55879361  0.93024500     0.08100
H631        H  0.70559804  0.59731473  0.95340804     0.08100
H632        H  0.70292658  0.55168817  0.90329712     0.04900
C633        C  0.95334604  0.66508722  0.99859533    -0.20900
C634        C  0.91380642  0.70433820  0.01381093    -0.07500
C635        C  0.86585782  0.69371968  0.03275136     0.13400
C636        C  0.85620598  0.64388357  0.03129660    -0.21000
C637        C  0.89349127  0.60403179  0.01129834    -0.07500
C638        C  0.94446125  0.61467656  0.99769969     0.13400
C639        C  0.99037179  0.57409461  0.98261085    -0.24300
H640        H  0.99125777  0.67414184  0.98719494     0.14700
H641        H  0.81951639  0.63721215  0.04712026     0.14700
C642        C  0.82566218  0.73472081  0.05647913    -0.24300
H643        H  0.02655269  0.59065520  0.97509359     0.04900
H644        H  0.98219595  0.55403466  0.94768162     0.08100
H645        H  0.00041336  0.54631841  0.01335909     0.08100
H646        H  0.81343885  0.76557671  0.02912025     0.08100
H647        H  0.84319323  0.75068622  0.08995353     0.08100
H648        H  0.78976519  0.71999460  0.06892118     0.04900
C649        C  0.64819922  0.42524011  0.61373910    -0.20900
C650        C  0.67204136  0.46505379  0.59464284    -0.07500
C651        C  0.63929420  0.50840316  0.57468192     0.13400
C652        C  0.58412837  0.51210124  0.57732820    -0.21000
C653        C  0.56044793  0.47369819  0.59922439    -0.07500
C654        C  0.59303889  0.42852651  0.61525072     0.13400
C655        C  0.57107583  0.38203975  0.63133618    -0.24300
H656        H  0.67283616  0.39070549  0.62656606     0.14700
H657        H  0.55931488  0.54598773  0.56338765     0.14700
C658        C  0.66195812  0.55028457  0.54900236    -0.24300
H659        H  0.58959134  0.34872868  0.60860019     0.04900
H660        H  0.52799502  0.38591079  0.62516393     0.08100
H661        H  0.57993907  0.37429403  0.67173000     0.08100
H662        H  0.68830809  0.53424433  0.51769983     0.08100
H663        H  0.68430848  0.56973939  0.57652120     0.08100
H664        H  0.63063747  0.57946374  0.53290572     0.04900
C665        C  0.36818394  0.53110818  0.73692136    -0.20900
C666        C  0.39988458  0.48968761  0.71222903    -0.07500
C667        C  0.41654887  0.44508610  0.74100624     0.13400
C668        C  0.41305336  0.44805442  0.79372548    -0.21000
C669        C  0.38988474  0.49293094  0.81800422    -0.07500
C670        C  0.36404651  0.53363819  0.78951462     0.13400
C671        C  0.33320573  0.58001023  0.81466211    -0.24300
H672        H  0.34667677  0.56223502  0.71585586     0.14700
H673        H  0.42859685  0.41517843  0.81626895     0.14700
C674        C  0.43641940  0.39396855  0.71712103    -0.24300
H675        H  0.31565836  0.60881839  0.78677526     0.04900
H676        H  0.35959681  0.59789631  0.83975196     0.08100
H677        H  0.30070309  0.56885252  0.83738474     0.08100
H678        H  0.47386526  0.39372221  0.69684266     0.08100
H679        H  0.40633955  0.38364891  0.69078574     0.08100
H680        H  0.44389078  0.36342781  0.74578688     0.04900
C681        C  0.42130998  0.63667812  0.54182639    -0.20900
C682        C  0.44672337  0.61026298  0.58267995    -0.07500
C683        C  0.47412773  0.63775483  0.61730845     0.13400
C684        C  0.47153822  0.69090873  0.61222578    -0.21000
C685        C  0.44182328  0.71832439  0.57402514    -0.07500
C686        C  0.41839791  0.68995162  0.53694900     0.13400
C687        C  0.38966765  0.71516174  0.49195897    -0.24300
H688        H  0.40069767  0.61600403  0.51519070     0.14700
H689        H  0.49080678  0.71156690  0.63994871     0.14700
C690        C  0.50569038  0.61179053  0.66061879    -0.24300
H691        H  0.37924290  0.68681280  0.46449643     0.04900
H692        H  0.41496707  0.73882172  0.47217695     0.08100
H693        H  0.35224860  0.73888929  0.50412631     0.08100
H694        H  0.53577470  0.58045743  0.64641606     0.08100
H695        H  0.47995660  0.59649344  0.68805050     0.08100
H696        H  0.52676412  0.63850253  0.68165535     0.04900
C697        C  0.91272337  0.76359583  0.53073150    -0.20900
C698        C  0.88218912  0.79005330  0.56901956    -0.07500
C699        C  0.85073562  0.76274024  0.59908430     0.13400
C700        C  0.85444737  0.70964711  0.59351366    -0.21000
C701        C  0.88854220  0.68210862  0.55820150    -0.07500
C702        C  0.91578002  0.71041056  0.52427561     0.13400
C703        C  0.94846690  0.68552526  0.48103561    -0.24300
H704        H  0.93662286  0.78421994  0.50743915     0.14700
H705        H  0.83181905  0.68932933  0.61839671     0.14700
C706        C  0.81267887  0.78943465  0.63722576    -0.24300
H707        H  0.96211813  0.71406940  0.45603827     0.04900
H708        H  0.92458130  0.66307125  0.45778465     0.08100
H709        H  0.98420027  0.66076660  0.49535232     0.08100
H710        H  0.78263990  0.81623164  0.61687478     0.08100
H711        H  0.83331790  0.80989373  0.66540839     0.08100
H712        H  0.79171143  0.76259048  0.65791161     0.04900
C713        C  0.96997922  0.85760225  0.72688084    -0.20900
C714        C  0.94219221  0.90181827  0.70360310    -0.07500
C715        C  0.93264411  0.94708670  0.73325186     0.13400
C716        C  0.93936834  0.94377474  0.78579230    -0.21000
C717        C  0.95803611  0.89725577  0.80912499    -0.07500
C718        C  0.97666659  0.85452213  0.77930703     0.13400
C719        C  0.00286356  0.80559368  0.80296492    -0.24300
H720        H  0.98609119  0.82453218  0.70506102     0.14700
H721        H  0.92893994  0.97753082  0.80902880     0.14700
C722        C  0.91612817  0.99906720  0.71035640    -0.24300
H723        H  0.01550786  0.77556555  0.77427838     0.04900
H724        H  0.97496533  0.79137899  0.82916518     0.08100
H725        H  0.03828023  0.81237035  0.82425935     0.08100
H726        H  0.87767377  0.00235857  0.69095683     0.08100
H727        H  0.94659257  0.00691797  0.68325066     0.08100
H728        H  0.91218129  0.02957741  0.73945311     0.04900
C729        C  0.74256793  0.90827910  0.64516679    -0.20900
C730        C  0.77125779  0.92677120  0.60600712    -0.07500
C731        C  0.74269077  0.95463267  0.56679163     0.13400
C732        C  0.68713606  0.96055844  0.56664395    -0.21000
C733        C  0.65886392  0.93889050  0.60406249    -0.07500
C734        C  0.68731519  0.91261428  0.64404334     0.13400
C735        C  0.65995680  0.88942932  0.68603319    -0.24300
H736        H  0.76369281  0.88815119  0.67621747     0.14700
H737        H  0.66557998  0.98152253  0.53623237     0.14700
C738        C  0.76969326  0.98063836  0.52640008    -0.24300
H739        H  0.68803431  0.87320027  0.71579407     0.04900
H740        H  0.64108525  0.85797627  0.67093959     0.08100
H741        H  0.62975814  0.91877195  0.70377093     0.08100
H742        H  0.79081171  0.95246602  0.49967929     0.08100
H743        H  0.79764606  0.00337352  0.54368844     0.08100
H744        H  0.74084029  0.00692650  0.50384530     0.04900
loop_ 
_geom_bond_atom_site_label_1 
_geom_bond_atom_site_label_2 
_geom_bond_distance 
_geom_bond_site_symmetry_2 
_ccdc_geom_bond_type 
C1            C2   1.538       .  S
C1            C7   1.542       .  S
C1            C5   1.541       .  S
C1          C714   1.548       .  S
C2            H9   1.084       .  S
C2            C3   1.371       .  D
C3            C4   1.577       .  S
C3           C54   1.521       .  S
C4            C8   1.552       .  S
C4            C6   1.548       .  S
C4           H10   1.103       .  S
C5           H11   1.086       .  S
C5            C6   1.367       .  D
C6          C730   1.505       .  S
C7           H12   1.081       .  S
C7            C8   1.355       .  D
C8          C698   1.506       .  S
C13          C14   1.533       .  S
C13          C19   1.540       .  S
C13          C17   1.545       .  S
C13         C666   1.541       .  S
C14          H21   1.081       .  S
C14          C15   1.371       .  D
C15          C16   1.581       .  S
C15          C92   1.523       .  S
C16          C20   1.556       .  S
C16          C18   1.539       .  S
C16          H22   1.106       .  S
C17          H23   1.086       .  S
C17          C18   1.365       .  D
C18         C653   1.493       .  S
C19          H24   1.081       .  S
C19          C20   1.354       .  D
C20         C682   1.510       .  S
C25          C26   1.541       .  S
C25          C31   1.527   1_554  S
C25          C29   1.524       .  S
C25         C637   1.524       .  S
C26          H33   1.080       .  S
C26          C27   1.361       .  D
C27          C28   1.541   1_554  S
C27         C618   1.480       .  S
C28          C32   1.547       .  S
C28          C30   1.571   1_556  S
C28          H34   1.107       .  S
C29          H35   1.081       .  S
C29          C30   1.365       .  D
C30          C63   1.508       .  S
C31          H36   1.087       .  S
C31          C32   1.355       .  D
C32         C602   1.486       .  S
C37          C38   1.528       .  S
C37          C43   1.520   1_554  S
C37          C41   1.542       .  S
C37         C554   1.519       .  S
C38          H45   1.087       .  S
C38          C39   1.360       .  D
C39          C40   1.551   1_554  S
C39         C570   1.488       .  S
C40          C44   1.548       .  S
C40          C42   1.571   1_556  S
C40          H46   1.106       .  S
C41          H47   1.075       .  S
C41          C42   1.368       .  D
C42          C75   1.509       .  S
C43          H48   1.088       .  S
C43          C44   1.351       .  D
C44         C586   1.485       .  S
C49          C50   1.549       .  S
C49          C55   1.532   1_565  S
C49          C53   1.530       .  S
C49         C541   1.538       .  S
C50          H57   1.083   1_655  S
C50          C51   1.360   1_655  D
C51          C52   1.537   1_465  S
C51         C522   1.488       .  S
C52          C56   1.561       .  S
C52          C54   1.582   1_545  S
C52          H58   1.109       .  S
C53          H59   1.084       .  S
C53          C54   1.369       .  D
C55          H60   1.087       .  S
C55          C56   1.360       .  D
C56         C506   1.508       .  S
C61          C62   1.552       .  S
C61          C67   1.522       .  S
C61          C65   1.532   1_655  S
C61         C493   1.524       .  S
C62          H69   1.077       .  S
C62          C63   1.369       .  D
C63          C64   1.565       .  S
C64          C68   1.545       .  S
C64          C66   1.541   1_655  S
C64          H70   1.105       .  S
C65          H71   1.086       .  S
C65          C66   1.363       .  D
C66         C474   1.483       .  S
C67          H72   1.088       .  S
C67          C68   1.349       .  D
C68         C458   1.485       .  S
C73          C74   1.536       .  S
C73          C79   1.528       .  S
C73          C77   1.538       .  S
C73         C410   1.526       .  S
C74          H81   1.079       .  S
C74          C75   1.371   1_545  D
C75          C76   1.575       .  S
C76          C80   1.540   1_565  S
C76          C78   1.541   1_565  S
C76          H82   1.106       .  S
C77          H83   1.084       .  S
C77          C78   1.357       .  D
C78         C445   1.484   1_545  S
C79          H84   1.088       .  S
C79          C80   1.352       .  D
C80         C426   1.484   1_545  S
C85          C86   1.532       .  S
C85          C91   1.525       .  S
C85          C89   1.537       .  S
C85         C378   1.535       .  S
C86          H93   1.086       .  S
C86          C87   1.366       .  D
C87          C88   1.565       .  S
C87         C394   1.521       .  S
C88          C92   1.583       .  S
C88          C90   1.553       .  S
C88          H94   1.102       .  S
C89          H95   1.084       .  S
C89          C90   1.359       .  D
C90         C362   1.495       .  S
C91          H96   1.082       .  S
C91          C92   1.367       .  D
Zr97         O98   2.440       .  S
Zr97         O99   2.427       .  S
Zr97        O100   2.472       .  S
Zr97        O103   2.464       .  S
Zr97        O105   2.389       .  S
Zr97        O106   2.390   1_556  S
Zr97        O107   2.405       .  S
Zr97        O108   2.396   1_556  S
O98         H154   0.990       .  S
O98         H162   0.991       .  S
O99         C119   1.281   1_556  A
O100        C121   1.290       .  A
O101       Zr111   2.419       .  S
O101        C120   1.283       .  A
O102       Zr110   2.419   1_655  S
O102        C121   1.280       .  A
O103        C120   1.291   1_556  A
O104       Zr112   2.377       .  S
O104        C119   1.272       .  A
O105       Zr110   2.402   1_655  S
O105       Zr112   2.386   1_556  S
O106       Zr111   2.388       .  S
O106       Zr112   2.383       .  S
O106        H141   0.965       .  S
O107       Zr110   2.401   1_655  S
O107       Zr127   2.367   1_565  S
O107        H144   0.964       .  S
O108       Zr111   2.385       .  S
O108       Zr127   2.369   1_564  S
Zr109       O134   2.442   1_665  S
Zr109       O128   2.447   1_565  S
Zr109       O136   2.454       .  S
Zr109       O124   2.455   1_655  S
Zr109       O115   2.392       .  S
Zr109       O116   2.412   1_655  S
Zr109       O117   2.380   1_565  S
Zr109       O118   2.385   1_565  S
Zr110       O129   2.434   1_565  S
Zr110       O122   2.435       .  S
Zr110       O123   2.434   1_556  S
Zr110       O116   2.396   1_556  S
Zr110       O117   2.390   1_466  S
Zr111       O113   2.436   1_565  S
Zr111       O135   2.440       .  S
Zr111       O137   2.415       .  S
Zr111       O115   2.387       .  S
Zr111       O118   2.390   1_565  S
Zr112       O138   2.435       .  S
Zr112       O139   2.436   1_655  S
Zr112       O114   2.439   1_655  S
Zr112       O115   2.377       .  S
Zr112       O116   2.369   1_655  S
O113        H150   0.990   1_545  S
O114        H145   0.990       .  S
O114        H159   0.990       .  S
O116        H142   0.964       .  S
O117       Zr127   2.391   1_554  S
O118       Zr127   2.383   1_554  S
O118        H143   0.966       .  S
C119        C634   1.446       .  S
C120        C573   1.489       .  S
C121        C717   1.472       .  S
O122        H158   0.990       .  S
O123        C125   1.284       .  A
O124        C125   1.289       .  A
C125        C442   1.486       .  S
O126       Zr127   2.440       .  S
O126        H155   0.990       .  S
Zr127       O130   2.436       .  S
Zr127       O131   2.442   1_556  S
Zr127       O132   2.362   1_556  S
O128        C133   1.287       .  A
O129        H146   0.990   1_545  S
O129        H161   0.990       .  S
O130        H147   0.990       .  S
O131        H151   0.990       .  S
O131        H160   0.989       .  S
O132        C133   1.268       .  A
C133        C490   1.476       .  S
O134        H153   0.991   1_545  S
O134        H157   0.990       .  S
O135        H149   0.990       .  S
O135        H156   0.990       .  S
O136        C140   1.289       .  A
O137        C140   1.281       .  A
O138        H148   0.990       .  S
O139        H152   0.990       .  S
C140        C538   1.474       .  S
Zr163       O164   2.439       .  S
Zr163       O165   2.491       .  S
Zr163       O166   2.473       .  S
Zr163       O169   2.506       .  S
Zr163       O171   2.389       .  S
Zr163       O172   2.390       .  S
Zr163       O173   2.428       .  S
Zr163       O174   2.399       .  S
O164        H220   0.990       .  S
O164        H228   0.990       .  S
O165        C185   1.293       .  A
O166        C187   1.292       .  A
O167       Zr177   2.418       .  S
O167        C186   1.281       .  A
O168       Zr176   2.437       .  S
O168        C187   1.286       .  A
O169        C186   1.300       .  A
O170       Zr178   2.381       .  S
O170        C185   1.274       .  A
O171       Zr176   2.400       .  S
O171       Zr178   2.379       .  S
O172       Zr177   2.398       .  S
O172       Zr178   2.383       .  S
O172        H207   0.967       .  S
O173       Zr176   2.405       .  S
O173       Zr193   2.379       .  S
O173        H210   0.964       .  S
O174       Zr177   2.379       .  S
O174       Zr193   2.382       .  S
Zr175       O200   2.440   1_655  S
Zr175       O194   2.491       .  S
Zr175       O202   2.483   1_655  S
Zr175       O190   2.503       .  S
Zr175       O181   2.407   1_655  S
Zr175       O182   2.419       .  S
Zr175       O183   2.389       .  S
Zr175       O184   2.394       .  S
Zr176       O195   2.435       .  S
Zr176       O188   2.435       .  S
Zr176       O189   2.438       .  S
Zr176       O182   2.402       .  S
Zr176       O183   2.401       .  S
Zr177       O179   2.436   1_655  S
Zr177       O201   2.437   1_655  S
Zr177       O203   2.413   1_655  S
Zr177       O181   2.386   1_655  S
Zr177       O184   2.392       .  S
Zr178       O204   2.436   1_655  S
Zr178       O205   2.435   1_655  S
Zr178       O180   2.438       .  S
Zr178       O181   2.377   1_655  S
Zr178       O182   2.376       .  S
O179        H216   0.990       .  S
O180        H211   0.990       .  S
O180        H225   0.990       .  S
O182        H208   0.963       .  S
O183       Zr193   2.386       .  S
O184       Zr193   2.380       .  S
O184        H209   0.966       .  S
C185        C605   1.495       .  S
C186        C701   1.512       .  S
C187        C650   1.490       .  S
O188        H224   0.990       .  S
O189        C191   1.285       .  A
O190        C191   1.298       .  A
C191        C509   1.513       .  S
O192       Zr193   2.438       .  S
O192        H221   0.990       .  S
Zr193       O196   2.438       .  S
Zr193       O197   2.439       .  S
Zr193       O198   2.387       .  S
O194        C199   1.295       .  A
O195        H212   0.990       .  S
O195        H227   0.990       .  S
O196        H213   0.990       .  S
O197        H217   0.990       .  S
O197        H226   0.990       .  S
O198        C199   1.272       .  A
C199        C461   1.505       .  S
O200        H219   0.991       .  S
O200        H223   0.990       .  S
O201        H215   0.990       .  S
O201        H222   0.990       .  S
O202        C206   1.295       .  A
O203        C206   1.282       .  A
O204        H214   0.990       .  S
O205        H218   0.990       .  S
C206        C365   1.491       .  S
Zr229       O230   2.442       .  S
Zr229       O231   2.434       .  S
Zr229       O232   2.457       .  S
Zr229       O235   2.444       .  S
Zr229       O237   2.381       .  S
Zr229       O238   2.390   1_556  S
Zr229       O239   2.405       .  S
Zr229       O240   2.395   1_556  S
O230        H286   0.990       .  S
O230        H294   0.991       .  S
O231        C251   1.284   1_556  A
O232        C253   1.287       .  A
O233       Zr243   2.430       .  S
O233        C252   1.283       .  A
O234       Zr242   2.409       .  S
O234        C253   1.278       .  A
O235        C252   1.288   1_556  A
O236       Zr244   2.369       .  S
O236        C251   1.270       .  A
O237       Zr242   2.393       .  S
O237       Zr244   2.383   1_556  S
O238       Zr243   2.394       .  S
O238       Zr244   2.387       .  S
O238        H273   0.966       .  S
O239       Zr242   2.399       .  S
O239       Zr259   2.376   1_556  S
O239        H276   0.964       .  S
O240       Zr243   2.382       .  S
O240       Zr259   2.370       .  S
Zr241       O266   2.442       .  S
Zr241       O260   2.422       .  S
Zr241       O268   2.441       .  S
Zr241       O256   2.458       .  S
Zr241       O247   2.387       .  S
Zr241       O248   2.401       .  S
Zr241       O249   2.379       .  S
Zr241       O250   2.393       .  S
Zr242       O261   2.436       .  S
Zr242       O254   2.435       .  S
Zr242       O255   2.410   1_556  S
Zr242       O248   2.395   1_556  S
Zr242       O249   2.390   1_556  S
Zr243       O245   2.436       .  S
Zr243       O267   2.439       .  S
Zr243       O269   2.424       .  S
Zr243       O247   2.386       .  S
Zr243       O250   2.394       .  S
Zr244       O270   2.434       .  S
Zr244       O271   2.435       .  S
Zr244       O246   2.436       .  S
Zr244       O247   2.368       .  S
Zr244       O248   2.373       .  S
O245        H282   0.990       .  S
O246        H277   0.990       .  S
O246        H291   0.990       .  S
O248        H274   0.965       .  S
O249       Zr259   2.385       .  S
O250       Zr259   2.384       .  S
O250        H275   0.966       .  S
C251        C557   1.473       .  S
C252        C621   1.488       .  S
C253        C669   1.463       .  S
O254        H290   0.990       .  S
O255        C257   1.281       .  A
O256        C257   1.288       .  A
C257        C477   1.478       .  S
O258       Zr259   2.440   1_556  S
O258        H287   0.990       .  S
Zr259       O262   2.438   1_554  S
Zr259       O263   2.439       .  S
Zr259       O264   2.377       .  S
O260        C265   1.281       .  A
O261        H278   0.990       .  S
O261        H293   0.990       .  S
O262        H279   0.990       .  S
O263        H283   0.990       .  S
O263        H292   0.990       .  S
O264        C265   1.274       .  A
C265        C413   1.455       .  S
O266        H285   0.991       .  S
O266        H289   0.990       .  S
O267        H281   0.990       .  S
O267        H288   0.990       .  S
O268        C272   1.286       .  A
O269        C272   1.282       .  A
O270        H280   0.990       .  S
O271        H284   0.990       .  S
C272        C381   1.471       .  S
Zr295       O296   2.439       .  S
Zr295       O297   2.483       .  S
Zr295       O298   2.484       .  S
Zr295       O301   2.507       .  S
Zr295       O303   2.392       .  S
Zr295       O304   2.392       .  S
Zr295       O305   2.424       .  S
Zr295       O306   2.405       .  S
O296        H352   0.990       .  S
O296        H360   0.990       .  S
O297        C317   1.293       .  A
O298        C319   1.294       .  A
O299       Zr309   2.427       .  S
O299        C318   1.283       .  A
O300       Zr308   2.426   1_565  S
O300        C319   1.284       .  A
O301        C318   1.299       .  A
O302       Zr310   2.376       .  S
O302        C317   1.272       .  A
O303       Zr308   2.396   1_565  S
O303       Zr310   2.388       .  S
O304       Zr309   2.394       .  S
O304       Zr310   2.382       .  S
O304        H339   0.966       .  S
O305       Zr308   2.396   1_565  S
O305       Zr325   2.382       .  S
O305        H342   0.964       .  S
O306       Zr309   2.378       .  S
O306       Zr325   2.383       .  S
Zr307       O332   2.438       .  S
Zr307       O326   2.481       .  S
Zr307       O334   2.501       .  S
Zr307       O322   2.502       .  S
Zr307       O313   2.405   1_545  S
Zr307       O314   2.418       .  S
Zr307       O315   2.392   1_545  S
Zr307       O316   2.400   1_545  S
Zr308       O327   2.435       .  S
Zr308       O320   2.435       .  S
Zr308       O321   2.417       .  S
Zr308       O314   2.399       .  S
Zr308       O315   2.394   1_545  S
Zr309       O311   2.435       .  S
Zr309       O333   2.438       .  S
Zr309       O335   2.411       .  S
Zr309       O313   2.387       .  S
Zr309       O316   2.397       .  S
Zr310       O336   2.437       .  S
Zr310       O337   2.438   1_565  S
Zr310       O312   2.437   1_565  S
Zr310       O313   2.373       .  S
Zr310       O314   2.370   1_565  S
O311        H348   0.990       .  S
O312        H343   0.990       .  S
O312        H357   0.990       .  S
O314        H340   0.963       .  S
O315       Zr325   2.385       .  S
O316       Zr325   2.383       .  S
O316        H341   0.966       .  S
C317        C589   1.486       .  S
C318        C685   1.515       .  S
C319        C733   1.496       .  S
O320        H356   0.990       .  S
O321        C323   1.281       .  A
O322        C323   1.298       .  A
C323        C397   1.498       .  S
O324       Zr325   2.439       .  S
O324        H353   0.990       .  S
Zr325       O328   2.438       .  S
Zr325       O329   2.438       .  S
Zr325       O330   2.395       .  S
O326        C331   1.292   1_545  A
O327        H344   0.990       .  S
O327        H359   0.990       .  S
O328        H345   0.990       .  S
O329        H349   0.991       .  S
O329        H358   0.989       .  S
O330        C331   1.277       .  A
C331        C429   1.498       .  S
O332        H351   0.990       .  S
O332        H355   0.990       .  S
O333        H347   0.990       .  S
O333        H354   0.990       .  S
O334        C338   1.297   1_545  A
O335        C338   1.283       .  A
O336        H346   0.990       .  S
O337        H350   0.991       .  S
C338        C525   1.508       .  S
C361        C362   1.411       .  A
C361        C366   1.404       .  A
C361        H368   1.084       .  S
C362        C363   1.407       .  A
C363        C370   1.504       .  S
C363        C364   1.408       .  A
C364        C365   1.413       .  A
C364        H369   1.084       .  S
C365        C366   1.412       .  A
C366        C367   1.506       .  S
C367        H371   1.111       .  S
C367        H372   1.110       .  S
C367        H373   1.108       .  S
C370        H374   1.111       .  S
C370        H375   1.107       .  S
C370        H376   1.111       .  S
C377        C378   1.409       .  A
C377        C382   1.397       .  A
C377        H384   1.081       .  S
C378        C379   1.424       .  A
C379        C386   1.508       .  S
C379        C380   1.404       .  A
C380        C381   1.400       .  A
C380        H385   1.085       .  S
C381        C382   1.411       .  A
C382        C383   1.509       .  S
C383        H387   1.111       .  S
C383        H388   1.109       .  S
C383        H389   1.110       .  S
C386        H390   1.111       .  S
C386        H391   1.107       .  S
C386        H392   1.110       .  S
C393        C394   1.411       .  A
C393        C398   1.408       .  A
C393        H400   1.084       .  S
C394        C395   1.424       .  A
C395        C402   1.499       .  S
C395        C396   1.415       .  A
C396        C397   1.404       .  A
C396        H401   1.084       .  S
C397        C398   1.417       .  A
C398        C399   1.509       .  S
C399        H403   1.111       .  S
C399        H404   1.110       .  S
C399        H405   1.109       .  S
C402        H406   1.096       .  S
C402        H407   1.107       .  S
C402        H408   1.111       .  S
C409        C410   1.417       .  A
C409        C414   1.392       .  A
C409        H416   1.077       .  S
C410        C411   1.425       .  A
C411        C418   1.508       .  S
C411        C412   1.398       .  A
C412        C413   1.396       .  A
C412        H417   1.085       .  S
C413        C414   1.402       .  A
C414        C415   1.511       .  S
C415        H419   1.111       .  S
C415        H420   1.111       .  S
C415        H421   1.109       .  S
C418        H422   1.109       .  S
C418        H423   1.111       .  S
C418        H424   1.106       .  S
C425        C426   1.405   1_545  A
C425        C430   1.411   1_545  A
C425        H432   1.082       .  S
C426        C427   1.406       .  A
C427        C434   1.507       .  S
C427        C428   1.404       .  A
C428        C429   1.413       .  A
C428        H433   1.084       .  S
C429        C430   1.418       .  A
C430        C431   1.506   1_565  S
C431        H435   1.111       .  S
C431        H436   1.110       .  S
C431        H437   1.110   1_545  S
C434        H438   1.110       .  S
C434        H439   1.111       .  S
C434        H440   1.111       .  S
C441        C442   1.400   1_545  A
C441        C446   1.398       .  A
C441        H448   1.085       .  S
C442        C443   1.422       .  A
C443        C450   1.507       .  S
C443        C444   1.409       .  A
C444        C445   1.400       .  A
C444        H449   1.084       .  S
C445        C446   1.420   1_565  A
C446        C447   1.510       .  S
C447        H451   1.111       .  S
C447        H452   1.110       .  S
C447        H453   1.106       .  S
C450        H454   1.108   1_554  S
C450        H455   1.111       .  S
C450        H456   1.111       .  S
C457        C458   1.394       .  A
C457        C462   1.407       .  A
C457        H464   1.085       .  S
C458        C459   1.417   1_655  A
C459        C466   1.505       .  S
C459        C460   1.406   1_455  A
C460        C461   1.406       .  A
C460        H465   1.084   1_655  S
C461        C462   1.434       .  A
C462        C463   1.511       .  S
C463        H467   1.111       .  S
C463        H468   1.110       .  S
C463        H469   1.110       .  S
C466        H470   1.106       .  S
C466        H471   1.110       .  S
C466        H472   1.111       .  S
C473        C474   1.403       .  A
C473        C478   1.403       .  A
C473        H480   1.084       .  S
C474        C475   1.415       .  A
C475        C482   1.508   1_554  S
C475        C476   1.399       .  A
C476        C477   1.404       .  A
C476        H481   1.085   1_554  S
C477        C478   1.418       .  A
C478        C479   1.509       .  S
C479        H483   1.111       .  S
C479        H484   1.105       .  S
C479        H485   1.110       .  S
C482        H486   1.108       .  S
C482        H487   1.110       .  S
C482        H488   1.111       .  S
C489        C490   1.395       .  A
C489        C494   1.395       .  A
C489        H496   1.085   1_655  S
C490        C491   1.420       .  A
C491        C498   1.513       .  S
C491        C492   1.396       .  A
C492        C493   1.405       .  A
C492        H497   1.075       .  S
C493        C494   1.432       .  A
C494        C495   1.513   1_655  S
C495        H499   1.111       .  S
C495        H500   1.097       .  S
C495        H501   1.111       .  S
C498        H502   1.110       .  S
C498        H503   1.109   1_554  S
C498        H504   1.111       .  S
C505        C506   1.399       .  A
C505        C510   1.415       .  A
C505        H512   1.084       .  S
C506        C507   1.427       .  A
C507        C514   1.509   1_655  S
C507        C508   1.410       .  A
C508        C509   1.404       .  A
C508        H513   1.084       .  S
C509        C510   1.430       .  A
C510        C511   1.507       .  S
C511        H515   1.111       .  S
C511        H516   1.109       .  S
C511        H517   1.110       .  S
C514        H518   1.110       .  S
C514        H519   1.104       .  S
C514        H520   1.111   1_455  S
C521        C522   1.404   1_545  A
C521        C526   1.414       .  A
C521        H528   1.083       .  S
C522        C523   1.408       .  A
C523        C530   1.509       .  S
C523        C524   1.403       .  A
C524        C525   1.414       .  A
C524        H529   1.083       .  S
C525        C526   1.422   1_565  A
C526        C527   1.504       .  S
C527        H531   1.111       .  S
C527        H532   1.108       .  S
C527        H533   1.110       .  S
C530        H534   1.109       .  S
C530        H535   1.111       .  S
C530        H536   1.111       .  S
C537        C538   1.402       .  A
C537        C542   1.406       .  A
C537        H544   1.085       .  S
C538        C539   1.410       .  A
C539        C546   1.509   1_655  S
C539        C540   1.398       .  A
C540        C541   1.409       .  A
C540        H545   1.079       .  S
C541        C542   1.425       .  A
C542        C543   1.509   1_565  S
C543        H547   1.110       .  S
C543        H548   1.111   1_545  S
C543        H549   1.106   1_545  S
C546        H550   1.109       .  S
C546        H551   1.110   1_455  S
C546        H552   1.111       .  S
C553        C554   1.405       .  A
C553        C558   1.394       .  A
C553        H560   1.076       .  S
C554        C555   1.429   1_554  A
C555        C562   1.514       .  S
C555        C556   1.393       .  A
C556        C557   1.398   1_556  A
C556        H561   1.085       .  S
C557        C558   1.418       .  A
C558        C559   1.512       .  S
C559        H563   1.111       .  S
C559        H564   1.109       .  S
C559        H565   1.110       .  S
C562        H566   1.111       .  S
C562        H567   1.110       .  S
C562        H568   1.100       .  S
C569        C570   1.405   1_556  A
C569        C574   1.400       .  A
C569        H576   1.082       .  S
C570        C571   1.407       .  A
C571        C578   1.503       .  S
C571        C572   1.407       .  A
C572        C573   1.411       .  A
C572        H577   1.084       .  S
C573        C574   1.414   1_554  A
C574        C575   1.505       .  S
C575        H579   1.111       .  S
C575        H580   1.106       .  S
C575        H581   1.107       .  S
C578        H582   1.109       .  S
C578        H583   1.104       .  S
C578        H584   1.111       .  S
C585        C586   1.398       .  A
C585        C590   1.402       .  A
C585        H592   1.085       .  S
C586        C587   1.415       .  A
C587        C594   1.499       .  S
C587        C588   1.408       .  A
C588        C589   1.402       .  A
C588        H593   1.084       .  S
C589        C590   1.422       .  A
C590        C591   1.509       .  S
C591        H595   1.111       .  S
C591        H596   1.111       .  S
C591        H597   1.109       .  S
C594        H598   1.106       .  S
C594        H599   1.110       .  S
C594        H600   1.111       .  S
C601        C602   1.407       .  A
C601        C606   1.414       .  A
C601        H608   1.082       .  S
C602        C603   1.410       .  A
C603        C610   1.509       .  S
C603        C604   1.402       .  A
C604        C605   1.411       .  A
C604        H609   1.085       .  S
C605        C606   1.415       .  A
C606        C607   1.505       .  S
C607        H611   1.111       .  S
C607        H612   1.110       .  S
C607        H613   1.109       .  S
C610        H614   1.109       .  S
C610        H615   1.110   1_655  S
C610        H616   1.110   1_655  S
C617        C618   1.400       .  A
C617        C622   1.408       .  A
C617        H624   1.084       .  S
C618        C619   1.417   1_554  A
C619        C626   1.510       .  S
C619        C620   1.397       .  A
C620        C621   1.403   1_556  A
C620        H625   1.085       .  S
C621        C622   1.421       .  A
C622        C623   1.507       .  S
C623        H627   1.111       .  S
C623        H628   1.110       .  S
C623        H629   1.109       .  S
C626        H630   1.106       .  S
C626        H631   1.110       .  S
C626        H632   1.111       .  S
C633        C634   1.392   1_556  A
C633        C638   1.399       .  A
C633        H640   1.085       .  S
C634        C635   1.402       .  A
C635        C642   1.510       .  S
C635        C636   1.390       .  A
C636        C637   1.410       .  A
C636        H641   1.074       .  S
C637        C638   1.431   1_554  A
C638        C639   1.516       .  S
C639        H643   1.111   1_655  S
C639        H644   1.105       .  S
C639        H645   1.107   1_656  S
C642        H646   1.106       .  S
C642        H647   1.110       .  S
C642        H648   1.111       .  S
C649        C650   1.406       .  A
C649        C654   1.406       .  A
C649        H656   1.085       .  S
C650        C651   1.418       .  A
C651        C658   1.506       .  S
C651        C652   1.407       .  A
C652        C653   1.402       .  A
C652        H657   1.084       .  S
C653        C654   1.417       .  A
C654        C655   1.506       .  S
C655        H659   1.111       .  S
C655        H660   1.107       .  S
C655        H661   1.110       .  S
C658        H662   1.110       .  S
C658        H663   1.107       .  S
C658        H664   1.111       .  S
C665        C666   1.417       .  A
C665        C670   1.401       .  A
C665        H672   1.078       .  S
C666        C667   1.422       .  A
C667        C674   1.510       .  S
C667        C668   1.404       .  A
C668        C669   1.399       .  A
C668        H673   1.085       .  S
C669        C670   1.401       .  A
C670        C671   1.507       .  S
C671        H675   1.111       .  S
C671        H676   1.110       .  S
C671        H677   1.110       .  S
C674        H678   1.102       .  S
C674        H679   1.109       .  S
C674        H680   1.111       .  S
C681        C682   1.399       .  A
C681        C686   1.416       .  A
C681        H688   1.084       .  S
C682        C683   1.428       .  A
C683        C690   1.511       .  S
C683        C684   1.414       .  A
C684        C685   1.404       .  A
C684        H689   1.084       .  S
C685        C686   1.429       .  A
C686        C687   1.507       .  S
C687        H691   1.111       .  S
C687        H692   1.111       .  S
C687        H693   1.108       .  S
C690        H694   1.105       .  S
C690        H695   1.107       .  S
C690        H696   1.111       .  S
C697        C698   1.399       .  A
C697        C702   1.416       .  A
C697        H704   1.084       .  S
C698        C699   1.421       .  A
C699        C706   1.501       .  S
C699        C700   1.409       .  A
C700        C701   1.402       .  A
C700        H705   1.084       .  S
C701        C702   1.432       .  A
C702        C703   1.507       .  S
C703        H707   1.111       .  S
C703        H708   1.110       .  S
C703        H709   1.108       .  S
C706        H710   1.105       .  S
C706        H711   1.108       .  S
C706        H712   1.111       .  S
C713        C714   1.419       .  A
C713        C718   1.404       .  A
C713        H720   1.076       .  S
C714        C715   1.424       .  A
C715        C722   1.511       .  S
C715        C716   1.407       .  A
C716        C717   1.401       .  A
C716        H721   1.084       .  S
C717        C718   1.401       .  A
C718        C719   1.506   1_655  S
C719        H723   1.111       .  S
C719        H724   1.110   1_455  S
C719        H725   1.111       .  S
C722        H726   1.105   1_565  S
C722        H727   1.109   1_565  S
C722        H728   1.111   1_565  S
C729        C730   1.411       .  A
C729        C734   1.406       .  A
C729        H736   1.083       .  S
C730        C731   1.416       .  A
C731        C738   1.509       .  S
C731        C732   1.410       .  A
C732        C733   1.411       .  A
C732        H737   1.084       .  S
C733        C734   1.412       .  A
C734        C735   1.506       .  S
C735        H739   1.111       .  S
C735        H740   1.108       .  S
C735        H741   1.110       .  S
C738        H742   1.105       .  S
C738        H743   1.110   1_565  S
C738        H744   1.111   1_565  S
