geometry optimzed in LAMMPS
_audit_creation_date              2020-11-30 
_audit_creation_method            'lammps2cif' 
_symmetry_space_group_name_H-M    'P1' 
_symmetry_Int_Tables_number       1 
_symmetry_cell_setting            triclinic 
loop_ 
_symmetry_equiv_pos_as_xyz 
  x,y,z 
_cell_length_a                    41.61575891986447 
_cell_length_b                    41.99194497015696 
_cell_length_c                    42.235210872538666 
_cell_angle_alpha                 90.11864729786015 
_cell_angle_beta                  89.92158582882955 
_cell_angle_gamma                 90.49241416242704 
loop_ 
_atom_site_label 
_atom_site_type_symbol 
_atom_site_fract_x 
_atom_site_fract_y 
_atom_site_fract_z 
_atom_site_charge 
C1          C  0.36498993  0.36572003  0.48151576     0.03460
C2          C  0.37467576  0.33375345  0.98459511    -0.12690
C3          C  0.35481651  0.30915210  0.97379023     0.00960
C4          C  0.32720821  0.31748750  0.95687304    -0.11210
C5          C  0.31184766  0.34625394  0.46482387     0.03450
C6          C  0.33220632  0.37172016  0.47425154    -0.10630
H7          H  0.39677827  0.32799790  0.99677666     0.09050
H8          H  0.31354374  0.29834342  0.94604005     0.06580
H9          H  0.32241759  0.39531244  0.47689301     0.06420
C10         C  0.36469488  0.22413662  0.00384045     0.03460
C11         C  0.37198615  0.25295471  0.98800800    -0.12690
C12         C  0.35243973  0.27929102  0.99238947     0.00960
C13         C  0.32676546  0.27697335  0.01339990    -0.11210
C14         C  0.31445085  0.24739409  0.02361103     0.03450
C15         C  0.33445276  0.22065993  0.01940990    -0.10630
H16         H  0.39284561  0.25492823  0.97273961     0.09050
H17         H  0.31434288  0.29883931  0.01804426     0.06580
H18         H  0.32706442  0.19779617  0.02884150     0.06420
C19         C  0.22603485  0.22643778  0.01602967     0.03460
C20         C  0.25888575  0.22034579  0.02306464    -0.12690
C21         C  0.27923495  0.24576412  0.03280745     0.00960
C22         C  0.26389075  0.27451071  0.04083030    -0.11210
C23         C  0.23645184  0.28295295  0.52394374     0.03450
C24         C  0.21661679  0.25847247  0.51291232    -0.10630
H25         H  0.26866570  0.19680153  0.01972898     0.09050
H26         H  0.27757934  0.29359531  0.05175894     0.06580
H27         H  0.19480083  0.26434170  0.50029623     0.06420
C28         C  0.22758098  0.36858066  0.49606977     0.03460
C29         C  0.25733463  0.37185685  0.47967098    -0.12690
C30         C  0.27671152  0.34484486  0.47432734     0.00960
C31         C  0.26407786  0.31522494  0.48411203    -0.11210
C32         C  0.23881772  0.31292116  0.50561760     0.03450
C33         C  0.21988483  0.33945701  0.51104463    -0.10630
H34         H  0.26480145  0.39481523  0.47053909     0.09050
H35         H  0.27607387  0.29324319  0.47888366     0.06580
H36         H  0.19911971  0.33743608  0.52644488     0.06420
C37         C  0.36586513  0.06579851  0.32301814     0.03460
C38         C  0.33322207  0.05851007  0.33096290    -0.12690
C39         C  0.31323382  0.04525354  0.30762625     0.00960
C40         C  0.32805523  0.03599291  0.27946372    -0.11210
C41         C  0.35455587  0.05270395  0.26791693     0.03450
C42         C  0.37459615  0.06726537  0.29033609    -0.10630
H43         H  0.32391457  0.06129534  0.35467748     0.09050
H44         H  0.31534893  0.02074893  0.26370097     0.06580
H45         H  0.39722472  0.07776497  0.28288990     0.06420
C46         C  0.22371191  0.02582026  0.32080231     0.03460
C47         C  0.25621444  0.03245980  0.32969099    -0.12690
C48         C  0.27710805  0.04551809  0.30703084     0.00960
C49         C  0.26331188  0.05484927  0.27846559    -0.11210
C50         C  0.23702096  0.03837966  0.26612251     0.03450
C51         C  0.21602664  0.02419847  0.28793104    -0.10630
H52         H  0.26464066  0.02916231  0.35366054     0.09050
H53         H  0.27666603  0.06992841  0.26311912     0.06580
H54         H  0.19364118  0.01369417  0.27984057     0.06420
C55         C  0.22448278  0.05431759  0.17881125     0.03460
C56         C  0.21480195  0.04680689  0.21030227    -0.12690
C57         C  0.23726300  0.03343045  0.23099505     0.00960
C58         C  0.26685180  0.02457546  0.21795495    -0.11210
C59         C  0.27948504  0.04171719  0.19244411     0.03450
C60         C  0.25778763  0.05623050  0.17201806    -0.10630
H61         H  0.19047190  0.05051304  0.21845055     0.09050
H62         H  0.28214245  0.00919988  0.23115289     0.06580
H63         H  0.26650334  0.06784166  0.15076034     0.06420
C64         C  0.36972528  0.03606474  0.18110382     0.03460
C65         C  0.37852773  0.04393272  0.21274406    -0.12690
C66         C  0.35546008  0.05752353  0.23278886     0.00960
C67         C  0.32631086  0.06644607  0.21893168    -0.11210
C68         C  0.31441780  0.04938448  0.19297841     0.03450
C69         C  0.33665181  0.03459386  0.17327532    -0.10630
H70         H  0.40266244  0.04059325  0.22146393     0.09050
H71         H  0.31072556  0.08203047  0.23165236     0.06580
H72         H  0.32859458  0.02339191  0.15152358     0.06420
C73         C  0.03540114  0.22304126  0.32168387     0.03460
C74         C  0.03710698  0.25570671  0.33048685    -0.12690
C75         C  0.04961169  0.27781234  0.30883938     0.00960
C76         C  0.06315362  0.26537060  0.28116668    -0.11210
C77         C  0.05167339  0.23680521  0.26796881     0.03450
C78         C  0.03891704  0.21430384  0.28926448    -0.10630
H79         H  0.02981840  0.26338092  0.35389468     0.09050
H80         H  0.07835665  0.28021973  0.26726299     0.06580
H81         H  0.03306304  0.19044077  0.28126338     0.06420
C82         C  0.05649527  0.36807242  0.32203079     0.03460
C83         C  0.05183148  0.37682418  0.28989984    -0.12690
C84         C  0.03926057  0.35418819  0.26877817     0.00960
C85         C  0.02866659  0.32536784  0.28190706    -0.11210
C86         C  0.04323492  0.31305568  0.30903429     0.03450
C87         C  0.05596514  0.33532508  0.33058419    -0.10630
H88         H  0.05696938  0.40083633  0.28194730     0.09050
H89         H  0.01297712  0.31049209  0.26853362     0.06580
H90         H  0.06393381  0.32772493  0.35374216     0.06420
C91         C  0.06142649  0.22475787  0.17780590     0.03460
C92         C  0.05978388  0.21543484  0.21031510    -0.12690
C93         C  0.04705857  0.23697246  0.23250347     0.00960
C94         C  0.03373093  0.26468973  0.22020626    -0.11210
C95         C  0.04569020  0.27845628  0.19251300     0.03450
C96         C  0.05833487  0.25758032  0.16993777    -0.10630
H97         H  0.06652043  0.19177213  0.21775944     0.09050
H98         H  0.01838891  0.27829564  0.23480680     0.06580
H99         H  0.06430878  0.26615207  0.14647197     0.06420
C100        C  0.03013506  0.36738084  0.17887388     0.03460
C101        C  0.03017968  0.37542646  0.21179505    -0.12690
C102        C  0.04410350  0.35440975  0.23348927     0.00960
C103        C  0.05938673  0.32788958  0.22082750    -0.11210
C104        C  0.04863744  0.31419335  0.19260750     0.03450
C105        C  0.03564648  0.33495911  0.17014464    -0.10630
H106        H  0.02079349  0.39794971  0.22001838     0.09050
H107        H  0.07510542  0.31477176  0.23549946     0.06580
H108        H  0.03156535  0.32621696  0.14642057     0.06420
O109        O  0.45353417  0.49318429  0.99839785    -0.79800
O110        O  0.13831827  0.49489620  0.50082346    -0.81350
O111        O  0.04899508  0.45432811  0.44850621    -0.78370
O112        O  0.04206840  0.45476616  0.05246314    -0.76760
O113        O  0.04438892  0.49379915  0.09026347    -0.78550
O114        O  0.04583007  0.49277195  0.41014030    -0.79480
O115        O  0.09948445  0.45609391  0.50106723    -0.80810
O116        O  0.49256807  0.45517683  0.99753526    -0.81090
Eu117      Eu  0.04591789  0.48090867  0.00038499     2.39200
O118        O  0.07919813  0.01332641  0.03247574    -0.88600
O119        O  0.01276078  0.01256234  0.46799159    -0.92210
C120        C  0.46288022  0.46398414  0.99713314     1.02480
C121        C  0.12917371  0.46547260  0.50077395     1.02300
C122        C  0.04831690  0.46360305  0.41940184     1.02240
C123        C  0.04186585  0.46436917  0.08156150     1.00100
H124        H  0.09115922  0.00030005  0.45531645     0.29850
O125        O  0.07783038  0.01375330  0.46830405    -1.00990
H126        H  0.00003854  0.00000637  0.04515123     0.29890
O127        O  0.01358534  0.01341270  0.03214519    -1.03530
O128        O  0.13834516  0.09829157  0.49796121    -0.80760
O129        O  0.45356446  0.09661280  0.00254917    -0.80300
O130        O  0.09793663  0.04295139  0.40969460    -0.78730
O131        O  0.09847109  0.04814277  0.09019219    -0.82070
O132        O  0.49462172  0.04396145  0.09102497    -0.79930
O133        O  0.49253422  0.04772875  0.41051916    -0.78580
O134        O  0.04407881  0.13644789  0.44737192    -0.80100
O135        O  0.04780564  0.13710203  0.05192220    -0.82020
O136        O  0.04337617  0.09742701  0.40927517    -0.78760
O137        O  0.04941410  0.09852444  0.09019200    -0.81440
O138        O  0.13708890  0.04173481  0.44761871    -0.77170
O139        O  0.45375332  0.04954753  0.44884394    -0.77210
O140        O  0.45553086  0.04275225  0.05302038    -0.76850
O141        O  0.13716210  0.04895227  0.05173179    -0.80350
O142        O  0.09936637  0.13636681  0.49942849    -0.79770
O143        O  0.49212620  0.13565918  0.00175294    -0.78100
Eu144      Eu  0.11099684  0.04631280  0.49959343     2.39770
Eu145      Eu  0.48079253  0.04522598  0.00049677     2.39570
Eu146      Eu  0.04535937  0.04543712  0.43597192     2.38400
Eu147      Eu  0.04637323  0.04606779  0.06398992     2.39880
Eu148      Eu  0.04577054  0.11072040  0.49980083     2.39790
O149        O  0.01320085  0.07836584  0.03256783    -0.92510
O150        O  0.07857105  0.07866648  0.46721732    -0.91410
C151        C  0.12908144  0.12751857  0.49892457     1.02660
C152        C  0.46246194  0.12608810  0.00254329     1.01370
C153        C  0.12749931  0.04058517  0.41859151     1.00760
C154        C  0.12792460  0.04974927  0.08093663     1.02780
C155        C  0.46506746  0.04229099  0.08208496     1.01690
C156        C  0.46306148  0.05020805  0.41966824     1.00540
C157        C  0.04282826  0.12679990  0.41831818     1.00600
C158        C  0.04975707  0.12785393  0.08101417     1.03220
H159        H  0.99981225  0.09103276  0.45561073     0.30590
O160        O  0.01328290  0.07764525  0.46843729    -1.04680
H161        H  0.09204064  0.09197780  0.04425567     0.32640
O162        O  0.07843728  0.07849350  0.03136748    -1.07240
C163        C  0.04442390  0.42246207  0.16110090    -0.20970
C164        C  0.02910041  0.39313529  0.15447917    -0.09020
C165        C  0.01689815  0.38811987  0.12369237     0.29840
C166        C  0.02143464  0.41119662  0.10011807    -0.20970
C167        C  0.03752339  0.44004742  0.10672998    -0.09030
C168        C  0.04836741  0.44569032  0.13776940     0.29850
F169        F  0.06397657  0.47315943  0.14543426    -0.19550
H170        H  0.05471514  0.42711712  0.18419530     0.18210
H171        H  0.01196439  0.40659773  0.07665661     0.18220
F172        F  0.00016247  0.36127934  0.11626571    -0.19540
C173        C  0.07753616  0.15051813  0.12855753    -0.20970
C174        C  0.05328472  0.15272717  0.10553454    -0.09020
C175        C  0.03301784  0.17921601  0.10571929     0.29840
C176        C  0.03673719  0.20282909  0.12878794    -0.20970
C177        C  0.06075736  0.20061035  0.15210984    -0.09030
C178        C  0.08133480  0.17425050  0.15171155     0.29850
F179        F  0.10534403  0.17172555  0.17324583    -0.19550
H180        H  0.09385934  0.13064172  0.12824769     0.18210
H181        H  0.52004806  0.22250225  0.12902315     0.18220
F182        F  0.50881532  0.18162365  0.08433887    -0.19540
C183        C  0.02598845  0.40684697  0.35379607    -0.20970
C184        C  0.05568345  0.39283110  0.34676620    -0.09020
C185        C  0.08307961  0.40198655  0.36395090     0.29840
C186        C  0.08058970  0.42504035  0.38791516    -0.20970
C187        C  0.05080152  0.43904194  0.39477028    -0.09030
C188        C  0.02350205  0.42977304  0.37762429     0.29850
F189        F  0.49440876  0.44251128  0.38433952    -0.19550
H190        H  0.50460097  0.39967538  0.34095104     0.18210
H191        H  0.10187519  0.43219034  0.40094929     0.18220
F192        F  0.11206418  0.38901096  0.35727489    -0.19540
C193        C  0.06449726  0.19459089  0.36380187    -0.20970
C194        C  0.03593526  0.19848504  0.34660865    -0.09020
C195        C  0.00948054  0.17855531  0.35301037     0.29840
C196        C  0.01182408  0.15494223  0.37637487    -0.20970
C197        C  0.04047270  0.15123776  0.39356523    -0.09030
C198        C  0.06680774  0.17118062  0.38709524     0.29850
F199        F  0.09495887  0.16748937  0.40282067    -0.19550
H200        H  0.08522528  0.20957141  0.35884086     0.18210
H201        H  0.49132615  0.13960045  0.38114496     0.18220
F202        F  0.48153236  0.18211072  0.33694283    -0.19540
C203        C  0.38649261  0.04834406  0.12606207    -0.20970
C204        C  0.39382958  0.03404639  0.15529185    -0.09020
C205        C  0.42468860  0.02140092  0.15975164     0.29840
C206        C  0.44780223  0.02417413  0.13580699    -0.20970
C207        C  0.44041441  0.03909592  0.10695139    -0.09030
C208        C  0.40930172  0.05064955  0.10209631     0.29850
F209        F  0.40122499  0.06549489  0.07473712    -0.19550
H210        H  0.36326949  0.05903081  0.12201785     0.18210
H211        H  0.47147763  0.01442432  0.13975130     0.18220
F212        F  0.43250350  0.00607183  0.18687668    -0.19540
C213        C  0.16978079  0.06876347  0.15851476    -0.20970
C214        C  0.20070731  0.05693271  0.15278025    -0.09020
C215        C  0.20756569  0.04377124  0.12270210     0.29840
C216        C  0.18402014  0.04236491  0.09935161    -0.20970
C217        C  0.15286362  0.05301103  0.10554744    -0.09030
C218        C  0.14594165  0.06646466  0.13535847     0.29850
F219        F  0.11611483  0.07721930  0.14232780    -0.19550
H220        H  0.16373714  0.07927705  0.18114068     0.18210
H221        H  0.18988183  0.03161490  0.07674880     0.18220
F222        F  0.23633511  0.03018303  0.11627572    -0.19540
C223        C  0.20329056  0.01444510  0.37584575    -0.20970
C224        C  0.19767248  0.02567037  0.34501296    -0.09020
C225        C  0.16832281  0.04110820  0.33871546     0.29840
C226        C  0.14572840  0.04549175  0.36267138    -0.20970
C227        C  0.15186944  0.03534346  0.39363569    -0.09030
C228        C  0.18079137  0.01936862  0.39999430     0.29850
F229        F  0.18727894  0.00820815  0.42942637    -0.19550
H230        H  0.22534335  0.00223158  0.38148352     0.18210
H231        H  0.12371019  0.05786477  0.35711710     0.18220
F232        F  0.16205317  0.05397418  0.30994389    -0.19540
C233        C  0.40943435  0.07055767  0.40236303    -0.20970
C234        C  0.43845060  0.05527014  0.39492678    -0.09020
C235        C  0.44421191  0.04622447  0.36339077     0.29840
C236        C  0.42100533  0.05125352  0.34025919    -0.20970
C237        C  0.39155025  0.06584231  0.34759867    -0.09030
C238        C  0.38628915  0.07607800  0.37898119     0.29850
F239        F  0.35913876  0.09174466  0.38716541    -0.19550
H240        H  0.40477164  0.07862235  0.42629926     0.18210
H241        H  0.42577960  0.04232663  0.31666762     0.18220
F242        F  0.47181006  0.03141607  0.35492056    -0.19540
C243        C  0.17120615  0.38635391  0.48984039    -0.20970
C244        C  0.20331776  0.39425396  0.49676957    -0.09020
C245        C  0.21103898  0.42582599  0.00476681     0.29840
C246        C  0.18685777  0.44885899  0.00620600    -0.20970
C247        C  0.15458653  0.44082001  0.49970581    -0.09030
C248        C  0.14711641  0.40915699  0.49128315     0.29850
F249        F  0.11665272  0.40011770  0.48381089    -0.19550
H250        H  0.16470933  0.36224249  0.48307339     0.18210
H251        H  0.19342189  0.47297934  0.01282228     0.18220
F252        F  0.24164753  0.43420892  0.01233553    -0.19540
C253        C  0.14636328  0.18169331  0.01570399    -0.20970
C254        C  0.15415102  0.15277904  0.50126395    -0.09020
C255        C  0.18608332  0.14802621  0.49110460     0.29840
C256        C  0.20951165  0.17190645  0.49559986    -0.20970
C257        C  0.20164763  0.20074705  0.01044287    -0.09030
C258        C  0.16966643  0.20514365  0.02070414     0.29890
F259        F  0.16094100  0.23169398  0.03686375    -0.19550
H260        H  0.12225436  0.18585257  0.02440410     0.18210
H261        H  0.23367388  0.16783168  0.48709898     0.18220
F262        F  0.19464985  0.12049712  0.47659613    -0.19540
C263        C  0.44517838  0.18262424  0.50896316    -0.20970
C264        C  0.43686849  0.15065743  0.00341430    -0.09020
C265        C  0.40409887  0.14279482  0.99863225     0.29840
C266        C  0.38062211  0.16655249  0.99904407    -0.20970
C267        C  0.38919371  0.19853364  0.00418767    -0.09030
C268        C  0.42177922  0.20621364  0.50953586     0.29850
F269        F  0.43108985  0.23658239  0.51611176    -0.19550
H270        H  0.46994257  0.18952392  0.51319055     0.18210
H271        H  0.35579025  0.15998398  0.99472163     0.18220
F272        F  0.39460710  0.11230288  0.99299527    -0.19540
C273        C  0.42092382  0.38648985  0.47584738    -0.20970
C274        C  0.38934901  0.39149108  0.98691606    -0.09020
C275        C  0.38234415  0.42057931  0.00205210     0.29840
C276        C  0.40632592  0.44406327  0.00540473    -0.20970
C277        C  0.43780676  0.43881095  0.99440102    -0.09030
C278        C  0.44489313  0.40950589  0.47979085     0.29850
F279        F  0.47470845  0.40338458  0.46831522    -0.19550
H280        H  0.42709468  0.36469730  0.46358869     0.18210
H281        H  0.40034804  0.46627087  0.01700588     0.18220
F282        F  0.35284516  0.42612128  0.01448708    -0.19540
C283        C  0.36496433  0.36575334  0.98160704     0.03460
C284        C  0.37469878  0.33371592  0.48447137    -0.12690
C285        C  0.35479576  0.30912246  0.47372169     0.00960
C286        C  0.32715562  0.31746872  0.45686201    -0.11210
C287        C  0.31187058  0.34626818  0.96480040     0.03450
C288        C  0.33219755  0.37174272  0.97426751    -0.10630
H289        H  0.39682879  0.32795139  0.49659989     0.09050
H290        H  0.31345819  0.29832954  0.44606051     0.06580
H291        H  0.32239576  0.39533288  0.97687729     0.06420
C292        C  0.36468748  0.22411905  0.50379224     0.03460
C293        C  0.37196209  0.25292549  0.48793364    -0.12690
C294        C  0.35243424  0.27927033  0.49233779     0.00960
C295        C  0.32679176  0.27696738  0.51339043    -0.11210
C296        C  0.31448241  0.24739386  0.52362740     0.03450
C297        C  0.33446969  0.22065473  0.51940689    -0.10630
H298        H  0.39279865  0.25488530  0.47263315     0.09050
H299        H  0.31438662  0.29883869  0.51805485     0.06580
H300        H  0.32709175  0.19779779  0.52886249     0.06420
C301        C  0.22604341  0.22645512  0.51619666     0.03460
C302        C  0.25890875  0.22035885  0.52316690    -0.12690
C303        C  0.27928202  0.24577092  0.53288152     0.00960
C304        C  0.26396218  0.27451906  0.54093875    -0.11210
C305        C  0.23641103  0.28293459  0.02378140     0.03450
C306        C  0.21661235  0.25844985  0.01270599    -0.10630
H307        H  0.26868052  0.19681582  0.51979793     0.09050
H308        H  0.27768075  0.29359897  0.55183960     0.06580
H309        H  0.19482321  0.26431116  0.00004077     0.06420
C310        C  0.22754615  0.36856056  0.99591758     0.03460
C311        C  0.25732248  0.37185099  0.97956050    -0.12690
C312        C  0.27671741  0.34484628  0.97423775     0.00960
C313        C  0.26408139  0.31522046  0.98399789    -0.11210
C314        C  0.23879087  0.31290439  0.00546513     0.03450
C315        C  0.21983704  0.33942921  0.01086924    -0.10630
H316        H  0.26479764  0.39481619  0.97045203     0.09050
H317        H  0.27609696  0.29324443  0.97878919     0.06580
H318        H  0.19905199  0.33739608  0.02624198     0.06420
C319        C  0.36586353  0.06581513  0.82303328     0.03460
C320        C  0.33321754  0.05853481  0.83097617    -0.12690
C321        C  0.31322797  0.04527648  0.80763961     0.00960
C322        C  0.32804993  0.03600693  0.77948080    -0.11210
C323        C  0.35455208  0.05271257  0.76793129     0.03450
C324        C  0.37459599  0.06727334  0.79034986    -0.10630
H325        H  0.32390917  0.06132811  0.85468956     0.09050
H326        H  0.31534177  0.02076122  0.76372015     0.06580
H327        H  0.39722701  0.07776681  0.78290252     0.06420
C328        C  0.22370767  0.02583183  0.82080591     0.03460
C329        C  0.25620727  0.03248038  0.82969847    -0.12690
C330        C  0.27710137  0.04553991  0.80703974     0.00960
C331        C  0.26330653  0.05486344  0.77847007    -0.11210
C332        C  0.23701492  0.03839196  0.76612790     0.03450
C333        C  0.21602513  0.02420591  0.78793543    -0.10630
H334        H  0.26463099  0.02918695  0.85366948     0.09050
H335        H  0.27666077  0.06994044  0.76312179     0.06580
H336        H  0.19364313  0.01369476  0.77984423     0.06420
C337        C  0.22446812  0.05430508  0.67880913     0.03460
C338        C  0.21479108  0.04680644  0.71030490    -0.12690
C339        C  0.23725392  0.03343678  0.73100176     0.00960
C340        C  0.26684040  0.02457602  0.71796514    -0.11210
C341        C  0.27947317  0.04171181  0.69245246     0.03450
C342        C  0.25777487  0.05621266  0.67201505    -0.10630
H343        H  0.19046250  0.05051743  0.71845472     0.09050
H344        H  0.28213319  0.00920850  0.73117072     0.06580
H345        H  0.26649175  0.06781522  0.65075329     0.06420
C346        C  0.36970890  0.03603729  0.68112411     0.03460
C347        C  0.37851824  0.04391982  0.71275879    -0.12690
C348        C  0.35545451  0.05752198  0.73280047     0.00960
C349        C  0.32630394  0.06644203  0.71894028    -0.11210
C350        C  0.31440686  0.04937415  0.69299076     0.03450
C351        C  0.33663567  0.03456200  0.67330138    -0.10630
H352        H  0.40265482  0.04058385  0.72147539     0.09050
H353        H  0.31072237  0.08203516  0.73165469     0.06580
H354        H  0.32857526  0.02334831  0.65155658     0.06420
C355        C  0.03539888  0.22303801  0.82168032     0.03460
C356        C  0.03710441  0.25570358  0.83048286    -0.12690
C357        C  0.04961239  0.27780832  0.80883676     0.00960
C358        C  0.06315790  0.26536542  0.78116598    -0.11210
C359        C  0.05167964  0.23679936  0.76796698     0.03450
C360        C  0.03891882  0.21429950  0.78926156    -0.10630
H361        H  0.02981298  0.26337849  0.85388961     0.09050
H362        H  0.07836328  0.28021393  0.76726435     0.06580
H363        H  0.03306532  0.19043636  0.78126041     0.06420
C364        C  0.05648897  0.36806898  0.82203520     0.03460
C365        C  0.05183778  0.37682151  0.78990188    -0.12690
C366        C  0.03927627  0.35418423  0.76877451     0.00960
C367        C  0.02867694  0.32536487  0.78190015    -0.11210
C368        C  0.04323664  0.31305197  0.80903100     0.03450
C369        C  0.05595676  0.33532111  0.83058695    -0.10630
H370        H  0.05697726  0.40083417  0.78195192     0.09050
H371        H  0.01299007  0.31049041  0.76852262     0.06580
H372        H  0.06391695  0.32772034  0.85374759     0.06420
C373        C  0.06143205  0.22474027  0.67780208     0.03460
C374        C  0.05979002  0.21542180  0.71031312    -0.12690
C375        C  0.04707072  0.23696489  0.73250038     0.00960
C376        C  0.03374846  0.26468308  0.72020096    -0.11210
C377        C  0.04571082  0.27844613  0.69250811     0.03450
C378        C  0.05834674  0.25756410  0.66993155    -0.10630
H379        H  0.06652141  0.19175828  0.71775956     0.09050
H380        H  0.01840785  0.27829201  0.73479980     0.06580
H381        H  0.06431927  0.26613238  0.64646422     0.06420
C382        C  0.03015762  0.36737192  0.67886913     0.03460
C383        C  0.03020185  0.37541949  0.71178970    -0.12690
C384        C  0.04412521  0.35440448  0.73348549     0.00960
C385        C  0.05940719  0.32788172  0.72082496    -0.11210
C386        C  0.04866044  0.31418441  0.69260320     0.03450
C387        C  0.03566970  0.33495020  0.67014043    -0.10630
H388        H  0.02081535  0.39794326  0.72001138     0.09050
H389        H  0.07512501  0.31476425  0.73549807     0.06580
H390        H  0.03158901  0.32620816  0.64641622     0.06420
O391        O  0.45358267  0.49313196  0.49836196    -0.79800
O392        O  0.13829637  0.49487294  0.00079688    -0.81350
O393        O  0.04895005  0.45432777  0.94851352    -0.78370
O394        O  0.04208439  0.45475427  0.55245529    -0.76760
O395        O  0.04440110  0.49378524  0.59025783    -0.78550
O396        O  0.04581426  0.49276882  0.91014222    -0.79480
O397        O  0.09945500  0.45607775  0.00103956    -0.80810
O398        O  0.49262192  0.45512924  0.49748066    -0.81090
Eu399      Eu  0.04593734  0.48090030  0.50037865     2.39200
O400        O  0.07916073  0.01332540  0.53246998    -0.88600
O401        O  0.01276062  0.01255945  0.96799878    -0.92210
C402        C  0.46293220  0.46393317  0.49707589     1.02480
C403        C  0.12914590  0.46545143  0.00073478     1.02300
C404        C  0.04828496  0.46359972  0.91940752     1.02240
C405        C  0.04188218  0.46435575  0.58155418     1.00100
H406        H  0.09116632  0.00030282  0.95529609     0.29850
O407        O  0.07784395  0.01375715  0.96828900    -1.00990
H408        H  0.99995623  0.99995657  0.54515980     0.29890
O409        O  0.01351198  0.01336393  0.53216138    -1.03530
O410        O  0.13835773  0.09827559  0.99789513    -0.80760
O411        O  0.45352019  0.09660306  0.50251662    -0.80300
O412        O  0.09792379  0.04294783  0.90968629    -0.78730
O413        O  0.09842184  0.04811519  0.59019922    -0.82070
O414        O  0.49452928  0.04397543  0.59103296    -0.79930
O415        O  0.49253534  0.04773329  0.91053033    -0.78580
O416        O  0.04407481  0.13644621  0.94736539    -0.80100
O417        O  0.04778542  0.13707013  0.55193722    -0.82020
O418        O  0.04336536  0.09742201  0.90927166    -0.78760
O419        O  0.04935406  0.09848673  0.59020385    -0.81440
O420        O  0.13708506  0.04173729  0.94760286    -0.77170
O421        O  0.45378391  0.04956563  0.94887758    -0.77210
O422        O  0.45546120  0.04282780  0.55300086    -0.76850
O423        O  0.13712227  0.04894044  0.55174728    -0.80350
O424        O  0.09937799  0.13635017  0.99935528    -0.79770
O425        O  0.49210101  0.13563628  0.50174039    -0.78100
Eu426      Eu  0.11101444  0.04630872  0.99958309     2.39770
Eu427      Eu  0.48069001  0.04522434  0.50046236     2.39570
Eu428      Eu  0.04535044  0.04543431  0.93597035     2.38400
Eu429      Eu  0.04632085  0.04604031  0.56398580     2.39880
Eu430      Eu  0.04578064  0.11072904  0.99979751     2.39790
O431        O  0.01317536  0.07834337  0.53254599    -0.92510
O432        O  0.07856284  0.07865193  0.96722199    -0.91410
C433        C  0.12909131  0.12750059  0.99883708     1.02660
C434        C  0.46243409  0.12607098  0.50251824     1.01370
C435        C  0.12748811  0.04058356  0.91857884     1.00760
C436        C  0.12787889  0.04972678  0.58094980     1.02780
C437        C  0.46498735  0.04233313  0.58207452     1.01690
C438        C  0.46306832  0.05022049  0.91969179     1.00540
C439        C  0.04281986  0.12679552  0.91831276     1.00600
C440        C  0.04971857  0.12781702  0.58102901     1.03220
H441        H  0.99981371  0.09104541  0.95561433     0.30590
O442        O  0.01328966  0.07765870  0.96843608    -1.04680
H443        H  0.09199496  0.09195080  0.54427800     0.32640
O444        O  0.07839805  0.07847086  0.53137900    -1.07240
C445        C  0.04445031  0.42245018  0.66109262    -0.20970
C446        C  0.02912285  0.39312493  0.65447369    -0.09020
C447        C  0.01691681  0.38810884  0.62368856     0.29840
C448        C  0.02145258  0.41118400  0.60011278    -0.20970
C449        C  0.03754425  0.44003360  0.60672212    -0.09030
C450        C  0.04839340  0.44567674  0.63775975     0.29850
F451        F  0.06400665  0.47314456  0.64542136    -0.19550
H452        H  0.05474467  0.42710510  0.68418573     0.18210
H453        H  0.01197887  0.40658533  0.57665264     0.18220
F454        F  0.00017795  0.36126929  0.61626533    -0.19540
C455        C  0.07751095  0.15047918  0.62856853    -0.20970
C456        C  0.05325390  0.15268783  0.60555104    -0.09020
C457        C  0.03299855  0.17918457  0.60573064     0.29840
C458        C  0.03673120  0.20280497  0.62879040    -0.20970
C459        C  0.06075467  0.20058671  0.65210910    -0.09030
C460        C  0.08132403  0.17421964  0.65171358     0.29850
F461        F  0.10534074  0.17169679  0.67324013    -0.19550
H462        H  0.09382945  0.13059935  0.62825871     0.18210
H463        H  0.52005764  0.22249459  0.62901349     0.18220
F464        F  0.50880282  0.18160993  0.58433947    -0.19540
C465        C  0.02595977  0.40679997  0.85383490    -0.20970
C466        C  0.05566735  0.39282523  0.84677361    -0.09020
C467        C  0.08306987  0.40202135  0.86392772     0.29840
C468        C  0.08057407  0.42507506  0.88789168    -0.20970
C469        C  0.05077336  0.43903552  0.89477854    -0.09030
C470        C  0.02346737  0.42972577  0.87766367     0.29850
F471        F  0.49434940  0.44244458  0.88438357    -0.19550
H472        H  0.50456123  0.39961451  0.84099227     0.18210
H473        H  0.10186441  0.43225642  0.90090164     0.18220
F474        F  0.11206540  0.38908384  0.85722369    -0.19540
C475        C  0.06448213  0.19460454  0.86381803    -0.20970
C476        C  0.03592957  0.19848258  0.84660585    -0.09020
C477        C  0.00948345  0.17853463  0.85298647     0.29840
C478        C  0.01182608  0.15491977  0.87634931    -0.20970
C479        C  0.04046516  0.15123201  0.89355891    -0.09030
C480        C  0.06679168  0.17119271  0.88710954     0.29850
F481        F  0.09493499  0.16751645  0.90285235    -0.19550
H482        H  0.08520440  0.20959811  0.85887244     0.18210
H483        H  0.49132680  0.13959554  0.88114280     0.18220
F484        F  0.48153221  0.18210666  0.83694101    -0.19540
C485        C  0.38644008  0.04831971  0.62607620    -0.20970
C486        C  0.39380103  0.03402778  0.65530358    -0.09020
C487        C  0.42466793  0.02139885  0.65975070     0.29840
C488        C  0.44776532  0.02418475  0.63579489    -0.20970
C489        C  0.44035054  0.03910901  0.60694360    -0.09030
C490        C  0.40923287  0.05063822  0.60210054     0.29850
F491        F  0.40113536  0.06547370  0.57474260    -0.19550
H492        H  0.36320993  0.05899402  0.62204076     0.18210
H493        H  0.47144871  0.01444781  0.63972884     0.18220
F494        F  0.43250634  0.00607824  0.68687374    -0.19540
C495        C  0.16975647  0.06874926  0.65851999    -0.20970
C496        C  0.20068460  0.05692090  0.65278016    -0.09020
C497        C  0.20753434  0.04375931  0.62270015     0.29840
C498        C  0.18397906  0.04234351  0.59935800    -0.20970
C499        C  0.15282110  0.05298453  0.60556079    -0.09030
C500        C  0.14590859  0.06644380  0.63537046     0.29850
F501        F  0.11608377  0.07720090  0.64234322    -0.19550
H502        H  0.16371829  0.07926713  0.68114521     0.18210
H503        H  0.18983632  0.03159309  0.57675421     0.18220
F504        F  0.23630584  0.03018059  0.61626343    -0.19540
C505        C  0.20328177  0.01444980  0.87584350    -0.20970
C506        C  0.19766501  0.02567439  0.84501089    -0.09020
C507        C  0.16831086  0.04110197  0.83870713     0.29840
C508        C  0.14571166  0.04547930  0.86265863    -0.20970
C509        C  0.15185410  0.03533671  0.89362370    -0.09030
C510        C  0.18077789  0.01936748  0.89998745     0.29850
F511        F  0.18726376  0.00820908  0.92942082    -0.19550
H512        H  0.22533728  0.00224269  0.88148486     0.18210
H513        H  0.12369059  0.05784607  0.85710128     0.18220
F514        F  0.16204170  0.05396639  0.80993480    -0.19540
C515        C  0.40943522  0.07057768  0.90238499    -0.20970
C516        C  0.43844894  0.05528331  0.89495184    -0.09020
C517        C  0.44420633  0.04623323  0.86341536     0.29840
C518        C  0.42100120  0.05126475  0.84028233    -0.20970
C519        C  0.39154856  0.06585947  0.84761786    -0.09030
C520        C  0.38629038  0.07610074  0.87900013     0.29850
F521        F  0.35914428  0.09177708  0.88718015    -0.19550
H522        H  0.40477522  0.07864663  0.92632023     0.18210
H523        H  0.42577492  0.04233456  0.81669197     0.18220
F524        F  0.47180108  0.03141876  0.85494544    -0.19540
C525        C  0.17117670  0.38635040  0.98966786    -0.20970
C526        C  0.20328601  0.39423657  0.99662494    -0.09020
C527        C  0.21107272  0.42585833  0.50485324     0.29840
C528        C  0.18689089  0.44889353  0.50625858    -0.20970
C529        C  0.15455532  0.44079807  0.99963128    -0.09030
C530        C  0.14708665  0.40915215  0.99114506     0.29850
F531        F  0.11662481  0.40013087  0.98364435    -0.19550
H532        H  0.16468190  0.36225063  0.98285797     0.18210
H533        H  0.19345667  0.47302619  0.51282856     0.18220
F534        F  0.24168457  0.43425644  0.51239331    -0.19540
C535        C  0.14637520  0.18168031  0.51590506    -0.20970
C536        C  0.15415619  0.15276058  0.00113751    -0.09020
C537        C  0.18609916  0.14797798  0.99102712     0.29840
C538        C  0.20952476  0.17186156  0.99550299    -0.20970
C539        C  0.20165170  0.20076193  0.51060824    -0.09030
C540        C  0.16968346  0.20512805  0.52092299     0.29890
F541        F  0.16097807  0.23164658  0.53714511    -0.19550
H542        H  0.12227603  0.18581511  0.52464350     0.18210
H543        H  0.23369857  0.16776352  0.98704616     0.18220
F544        F  0.19468092  0.12041359  0.97659412    -0.19540
C545        C  0.44518794  0.18263543  0.00904609    -0.20970
C546        C  0.43684811  0.15064099  0.50338059    -0.09020
C547        C  0.40407383  0.14277433  0.49863654     0.29840
C548        C  0.38060209  0.16653398  0.49903783    -0.20970
C549        C  0.38918395  0.19851921  0.50413383    -0.09030
C550        C  0.42178410  0.20622256  0.00962891     0.29850
F551        F  0.43108524  0.23658395  0.01625063    -0.19550
H552        H  0.46994757  0.18953162  0.01330461     0.18210
H553        H  0.35576511  0.15996262  0.49474807     0.18220
F554        F  0.39457110  0.11227574  0.49305302    -0.19540
C555        C  0.42090644  0.38650064  0.97602108    -0.20970
C556        C  0.38938567  0.39145313  0.48681259    -0.09020
C557        C  0.38240816  0.42050809  0.50202398     0.29840
C558        C  0.40639440  0.44398616  0.50538678    -0.20970
C559        C  0.43785660  0.43876181  0.49431862    -0.09030
C560        C  0.44486848  0.40951989  0.97995728     0.29850
F561        F  0.47470386  0.40336277  0.96855270    -0.19550
H562        H  0.42710053  0.36468398  0.96381713     0.18210
H563        H  0.40043634  0.46616607  0.51705066     0.18220
F564        F  0.35293280  0.42601874  0.51452756    -0.19540
C565        C  0.36496869  0.86570698  0.48151541     0.03460
C566        C  0.37467584  0.83377444  0.98457009    -0.12690
C567        C  0.35481504  0.80917240  0.97377106     0.00960
C568        C  0.32720435  0.81750700  0.95685681    -0.11210
C569        C  0.31182916  0.84624537  0.46482059     0.03450
C570        C  0.33218758  0.87170872  0.47424787    -0.10630
H571        H  0.39678102  0.82802015  0.99674761     0.09050
H572        H  0.31354050  0.79836240  0.94602422     0.06580
H573        H  0.32239970  0.89530172  0.47688572     0.06420
C574        C  0.36470278  0.72416333  0.00383903     0.03460
C575        C  0.37199467  0.75298062  0.98800506    -0.12690
C576        C  0.35244078  0.77931390  0.99237528     0.00960
C577        C  0.32676396  0.77699645  0.01338272    -0.11210
C578        C  0.31445353  0.74741788  0.02359985     0.03450
C579        C  0.33445922  0.72068583  0.01940525    -0.10630
H580        H  0.39285783  0.75495457  0.97274162     0.09050
H581        H  0.31433739  0.79886123  0.01802158     0.06580
H582        H  0.32707226  0.69782241  0.02883872     0.06420
C583        C  0.22604104  0.72644814  0.01601868     0.03460
C584        C  0.25889240  0.72036189  0.02305651    -0.12690
C585        C  0.27923769  0.74578476  0.03279530     0.00960
C586        C  0.26388939  0.77453056  0.04081256    -0.11210
C587        C  0.23644908  0.78295552  0.52395138     0.03450
C588        C  0.21661519  0.75847548  0.51291911    -0.10630
H589        H  0.26867571  0.69681828  0.01972634     0.09050
H590        H  0.27757513  0.79361875  0.05173861     0.06580
H591        H  0.19479853  0.76434507  0.50030426     0.06420
C592        C  0.22755661  0.86858307  0.49606568     0.03460
C593        C  0.25731306  0.87185853  0.47966729    -0.12690
C594        C  0.27669236  0.84484446  0.47432523     0.00960
C595        C  0.26406231  0.81522717  0.48411610    -0.11210
C596        C  0.23880736  0.81292538  0.50562579     0.03450
C597        C  0.21986719  0.83945937  0.51104609    -0.10630
H598        H  0.26477956  0.89481664  0.47053446     0.09050
H599        H  0.27605938  0.79324544  0.47889005     0.06580
H600        H  0.19910247  0.83743702  0.52644647     0.06420
C601        C  0.36587378  0.56579328  0.32303525     0.03460
C602        C  0.33322825  0.55851081  0.33097727    -0.12690
C603        C  0.31323842  0.54525842  0.30763823     0.00960
C604        C  0.32805959  0.53599557  0.27947669    -0.11210
C605        C  0.35456298  0.55270226  0.26793082     0.03450
C606        C  0.37460621  0.56725847  0.29035231    -0.10630
H607        H  0.32392010  0.56129834  0.35469140     0.09050
H608        H  0.31535094  0.52075414  0.26371294     0.06580
H609        H  0.39723689  0.57775410  0.28290705     0.06420
C610        C  0.22371808  0.52581694  0.32080542     0.03460
C611        C  0.25621864  0.53246046  0.32969761    -0.12690
C612        C  0.27711222  0.54552300  0.30704033     0.00960
C613        C  0.26331642  0.55485323  0.27847382    -0.11210
C614        C  0.23702598  0.53838260  0.26612938     0.03450
C615        C  0.21603441  0.52419569  0.28793500    -0.10630
H616        H  0.26464299  0.52916293  0.35366782     0.09050
H617        H  0.27666986  0.56993364  0.26312808     0.06580
H618        H  0.19365044  0.51368915  0.27984311     0.06420
C619        C  0.22448840  0.55432165  0.17881983     0.03460
C620        C  0.21480626  0.54681059  0.21031024    -0.12690
C621        C  0.23726683  0.53343303  0.23100302     0.00960
C622        C  0.26685483  0.52457628  0.21796406    -0.11210
C623        C  0.27948923  0.54171947  0.19245546     0.03450
C624        C  0.25779356  0.55623431  0.17202866    -0.10630
H625        H  0.19047606  0.55051737  0.21845789     0.09050
H626        H  0.28214515  0.50920097  0.23116319     0.06580
H627        H  0.26651077  0.56784577  0.15077169     0.06420
C628        C  0.36972616  0.53605868  0.18111529     0.03460
C629        C  0.37853176  0.54392704  0.21275494    -0.12690
C630        C  0.35546661  0.55752068  0.23280130     0.00960
C631        C  0.32631714  0.56644467  0.21894435    -0.11210
C632        C  0.31442186  0.54938361  0.19299123     0.03450
C633        C  0.33665275  0.53458876  0.17328922    -0.10630
H634        H  0.40266702  0.54058618  0.22147271     0.09050
H635        H  0.31073375  0.58203116  0.23166464     0.06580
H636        H  0.32859328  0.52338625  0.15153845     0.06420
C637        C  0.03540294  0.72304169  0.32168666     0.03460
C638        C  0.03710974  0.75570762  0.33048982    -0.12690
C639        C  0.04961267  0.77781421  0.30884158     0.00960
C640        C  0.06315164  0.76537239  0.28116733    -0.11210
C641        C  0.05167083  0.73680695  0.26796993     0.03450
C642        C  0.03891644  0.71430503  0.28926651    -0.10630
H643        H  0.02982271  0.76338150  0.35389819     0.09050
H644        H  0.07835369  0.78022148  0.26726271     0.06580
H645        H  0.03306189  0.69044211  0.28126537     0.06420
C646        C  0.05649516  0.86807749  0.32203644     0.03460
C647        C  0.05183282  0.87682904  0.28990433    -0.12690
C648        C  0.03926529  0.85419175  0.26878075     0.00960
C649        C  0.02867133  0.82537136  0.28190915    -0.11210
C650        C  0.04323778  0.81305897  0.30903712     0.03450
C651        C  0.05596548  0.83532916  0.33058863    -0.10630
H652        H  0.05696945  0.90084159  0.28195232     0.09050
H653        H  0.01298406  0.81049496  0.26853411     0.06580
H654        H  0.06393241  0.82772878  0.35374708     0.06420
C655        C  0.06142398  0.72475813  0.17780626     0.03460
C656        C  0.05978146  0.71543587  0.21031580    -0.12690
C657        C  0.04705602  0.73697376  0.23250412     0.00960
C658        C  0.03372850  0.76469107  0.22020646    -0.11210
C659        C  0.04568761  0.77845737  0.19251291     0.03450
C660        C  0.05833158  0.75758059  0.16993751    -0.10630
H661        H  0.06651869  0.69177347  0.21776052     0.09050
H662        H  0.01838603  0.77829706  0.23480671     0.06580
H663        H  0.06430545  0.76615190  0.14647154     0.06420
C664        C  0.03013365  0.86738336  0.17887499     0.03460
C665        C  0.03018102  0.87542925  0.21179642    -0.12690
C666        C  0.04410607  0.85441280  0.23349047     0.00960
C667        C  0.05938641  0.82789102  0.22082754    -0.11210
C668        C  0.04863534  0.81419496  0.19260773     0.03450
C669        C  0.03564392  0.83496136  0.17014552    -0.10630
H670        H  0.02079541  0.89795258  0.22002012     0.09050
H671        H  0.07510591  0.81477274  0.23549822     0.06580
H672        H  0.03156106  0.82621929  0.14642170     0.06420
O673        O  0.45355148  0.99317580  0.99842530    -0.79800
O674        O  0.13826568  0.99488612  0.50083503    -0.81350
O675        O  0.04893453  0.95432336  0.44852414    -0.78370
O676        O  0.04205243  0.95477173  0.05246381    -0.76760
O677        O  0.04437359  0.99380489  0.09026375    -0.78550
O678        O  0.04583267  0.99276952  0.41015407    -0.79480
O679        O  0.09942621  0.95608862  0.50108616    -0.80810
O680        O  0.49260272  0.95519440  0.99754507    -0.81090
Eu681      Eu  0.04590217  0.98091446  0.00038573     2.39200
O682        O  0.07921308  0.51332152  0.03247575    -0.88600
O683        O  0.01279359  0.51254163  0.46799262    -0.92210
C684        C  0.46290473  0.96398472  0.99714047     1.02480
C685        C  0.12911843  0.96546382  0.50078986     1.02300
C686        C  0.04829302  0.96359897  0.41941912     1.02240
C687        C  0.04185036  0.96437475  0.08156215     1.00100
H688        H  0.09120410  0.50030881  0.45529814     0.29850
O689        O  0.07787577  0.51375837  0.46829004    -1.00990
H690        H  0.00005375  0.49999921  0.04515163     0.29890
O691        O  0.01360106  0.51340553  0.03214608    -1.03530
O692        O  0.13836288  0.59830437  0.49794373    -0.80760
O693        O  0.45354350  0.59663279  0.00254998    -0.80300
O694        O  0.09794831  0.54295618  0.40969061    -0.78730
O695        O  0.09848422  0.54813909  0.09019348    -0.82070
O696        O  0.49458107  0.54398066  0.09104673    -0.79930
O697        O  0.49255147  0.54772444  0.41053041    -0.78580
O698        O  0.04408138  0.63644363  0.44737543    -0.80100
O699        O  0.04781719  0.63709725  0.05192398    -0.82020
O700        O  0.04337807  0.59742292  0.40927824    -0.78760
O701        O  0.04942626  0.59851949  0.09019360    -0.81440
O702        O  0.13711012  0.54175696  0.44760738    -0.77170
O703        O  0.45378236  0.54953214  0.44886584    -0.77210
O704        O  0.45551022  0.54280337  0.05301738    -0.76850
O705        O  0.13717649  0.54894887  0.05173420    -0.80350
O706        O  0.09937561  0.63637182  0.49941954    -0.79770
O707        O  0.49212151  0.63566694  0.00175041    -0.78100
Eu708      Eu  0.11103605  0.54632017  0.49958695     2.39770
Eu709      Eu  0.48071755  0.54524909  0.00047870     2.39570
Eu710      Eu  0.04537557  0.54543188  0.43597223     2.38400
Eu711      Eu  0.04638744  0.54606223  0.06399084     2.39880
Eu712      Eu  0.04578626  0.61071927  0.49980588     2.39790
O713        O  0.01321586  0.57836059  0.03256909    -0.92510
O714        O  0.07858121  0.57865954  0.46722418    -0.91410
C715        C  0.12909167  0.62752831  0.49891010     1.02660
C716        C  0.46245472  0.62610250  0.00254269     1.01370
C717        C  0.12751272  0.54059852  0.41858357     1.00760
C718        C  0.12793783  0.54974665  0.08093876     1.02780
C719        C  0.46503837  0.54231896  0.08208954     1.01690
C720        C  0.46308060  0.55019842  0.41968693     1.00540
C721        C  0.04282775  0.62679580  0.41832157     1.00600
C722        C  0.04976791  0.62784920  0.08101602     1.03220
H723        H  0.99982640  0.59102207  0.45562068     0.30590
O724        O  0.01330482  0.57763850  0.46844314    -1.04680
H725        H  0.09205418  0.59197245  0.04425701     0.32640
O726        O  0.07845155  0.57848793  0.03136831    -1.07240
C727        C  0.04441672  0.92246610  0.16110087    -0.20970
C728        C  0.02909538  0.89313800  0.15447995    -0.09020
C729        C  0.01689080  0.88812252  0.12369384     0.29840
C730        C  0.02142306  0.91120052  0.10011972    -0.20970
C731        C  0.03750987  0.94005260  0.10673094    -0.09030
C732        C  0.04835592  0.94569546  0.13776967     0.29850
F733        F  0.06396332  0.97316567  0.14543402    -0.19550
H734        H  0.05470967  0.92712158  0.18419443     0.18210
H735        H  0.01195140  0.90660139  0.07665885     0.18220
F736        F  0.00015688  0.86128082  0.11626757    -0.19540
C737        C  0.07754325  0.65051793  0.12856012    -0.20970
C738        C  0.05329196  0.65272319  0.10553658    -0.09020
C739        C  0.03302191  0.67920974  0.10572030     0.29840
C740        C  0.03673817  0.70282433  0.12878815    -0.20970
C741        C  0.06075812  0.70060939  0.15211066    -0.09030
C742        C  0.08133864  0.67425171  0.15171348     0.29850
F743        F  0.10534792  0.67173030  0.17324814    -0.19550
H744        H  0.09386895  0.63064357  0.12825116     0.18210
H745        H  0.52005561  0.72251385  0.12901424     0.18220
F746        F  0.50882116  0.68163868  0.08432770    -0.19540
C747        C  0.02598346  0.90684789  0.35380466    -0.20970
C748        C  0.05568046  0.89283601  0.34677450    -0.09020
C749        C  0.08307391  0.90199242  0.36396429     0.29840
C750        C  0.08057800  0.92504069  0.38793451    -0.20970
C751        C  0.05078660  0.93903656  0.39478958    -0.09030
C752        C  0.02349154  0.92976842  0.37763775     0.29850
F753        F  0.49439909  0.94252099  0.38433066    -0.19550
H754        H  0.50460262  0.89969211  0.34093825     0.18210
H755        H  0.10186115  0.93219174  0.40097188     0.18220
F756        F  0.11206167  0.88902458  0.35728634    -0.19540
C757        C  0.06449632  0.69458923  0.36380661    -0.20970
C758        C  0.03593555  0.69848395  0.34661153    -0.09020
C759        C  0.00948095  0.67855288  0.35301138     0.29840
C760        C  0.01182339  0.65493891  0.37637592    -0.20970
C761        C  0.04047092  0.65123454  0.39356845    -0.09030
C762        C  0.06680577  0.67117821  0.38709968     0.29850
F763        F  0.09495631  0.66748695  0.40282611    -0.19550
H764        H  0.08522456  0.70956995  0.35884723     0.18210
H765        H  0.49132293  0.63960655  0.38115828     0.18220
F766        F  0.48152857  0.68211726  0.33695584    -0.19540
C767        C  0.38648262  0.54834101  0.12607215    -0.20970
C768        C  0.39382592  0.53404225  0.15530009    -0.09020
C769        C  0.42468543  0.52139664  0.15975463     0.29840
C770        C  0.44779380  0.52417262  0.13580659    -0.20970
C771        C  0.44039583  0.53910123  0.10695437    -0.09030
C772        C  0.40928555  0.55064924  0.10210389     0.29850
F773        F  0.40120670  0.56549540  0.07474595    -0.19550
H774        H  0.36325924  0.55902762  0.12203124     0.18210
H775        H  0.47147124  0.51442409  0.13974635     0.18220
F776        F  0.43250479  0.50606666  0.18687750    -0.19540
C777        C  0.16978749  0.56876574  0.15851898    -0.20970
C778        C  0.20071474  0.55693566  0.15278716    -0.09020
C779        C  0.20757590  0.54377352  0.12270988     0.29840
C780        C  0.18403238  0.54236582  0.09935756    -0.20970
C781        C  0.15287516  0.55301104  0.10555074    -0.09030
C782        C  0.14595038  0.56646568  0.13536076     0.29850
F783        F  0.11612268  0.57721979  0.14232731    -0.19550
H784        H  0.16374173  0.57927956  0.18114425     0.18210
H785        H  0.18989612  0.53161513  0.07675559     0.18220
F786        F  0.23634603  0.53018557  0.11628622    -0.19540
C787        C  0.20329263  0.51444050  0.37584332    -0.20970
C788        C  0.19767692  0.52566705  0.34501123    -0.09020
C789        C  0.16832904  0.54110723  0.33871029     0.29840
C790        C  0.14573498  0.54549476  0.36266427    -0.20970
C791        C  0.15187690  0.53534956  0.39362850    -0.09030
C792        C  0.18079413  0.51936844  0.39998970     0.29850
F793        F  0.18727762  0.50820706  0.42942246    -0.19550
H794        H  0.22534356  0.50222422  0.38148226     0.18210
H795        H  0.12371813  0.55787001  0.35710939     0.18220
F796        F  0.16206194  0.55397354  0.30993835    -0.19540
C797        C  0.40944626  0.57054920  0.40238584    -0.20970
C798        C  0.43846220  0.55525990  0.39494923    -0.09020
C799        C  0.44421994  0.54621435  0.36341235     0.29840
C800        C  0.42101295  0.55124488  0.34028092    -0.20970
C801        C  0.39155871  0.56583523  0.34761932    -0.09030
C802        C  0.38629984  0.57607162  0.37900291     0.29850
F803        F  0.35915174  0.59174293  0.38718609    -0.19550
H804        H  0.40478582  0.57861479  0.42632221     0.18210
H805        H  0.42578687  0.54231802  0.31668934     0.18220
F806        F  0.47181674  0.53140495  0.35494023    -0.19540
C807        C  0.17117222  0.88635123  0.48984085    -0.20970
C808        C  0.20328525  0.89425553  0.49676554    -0.09020
C809        C  0.21102596  0.92583685  0.00476558     0.29840
C810        C  0.18684244  0.94886724  0.00620933    -0.20970
C811        C  0.15453662  0.94081245  0.49971938    -0.09030
C812        C  0.14707510  0.90914975  0.49129064     0.29850
F813        F  0.11661276  0.90010793  0.48381659    -0.19550
H814        H  0.16467994  0.86223945  0.48307155     0.18210
H815        H  0.19340419  0.97298680  0.01283074     0.18220
F816        F  0.24163341  0.93422078  0.01233741    -0.19540
C817        C  0.14637417  0.68169447  0.01570008    -0.20970
C818        C  0.15415554  0.65278978  0.50125097    -0.09020
C819        C  0.18608840  0.64803629  0.49109611     0.29840
C820        C  0.20951536  0.67191474  0.49559682    -0.20970
C821        C  0.20165703  0.70075272  0.01043787    -0.09030
C822        C  0.16967455  0.70514869  0.02069546     0.29890
F823        F  0.16094490  0.73170277  0.03684665    -0.19550
H824        H  0.12226392  0.68585439  0.02439622     0.18210
H825        H  0.23367841  0.66784045  0.48709820     0.18220
F826        F  0.19465712  0.62050696  0.47658921    -0.19540
C827        C  0.44518531  0.68260744  0.50896813    -0.20970
C828        C  0.43686672  0.65067517  0.00341343    -0.09020
C829        C  0.40409792  0.64281914  0.99861633     0.29840
C830        C  0.38062477  0.66658002  0.99902908    -0.20970
C831        C  0.38919902  0.69855818  0.00418661    -0.09030
C832        C  0.42178425  0.70619663  0.50953515     0.29850
F833        F  0.43109385  0.73656633  0.51610739    -0.19550
H834        H  0.46994856  0.68950982  0.51319640     0.18210
H835        H  0.35579350  0.66001675  0.99469589     0.18220
F836        F  0.39460422  0.61233092  0.99296266    -0.19540
C837        C  0.42089534  0.88648281  0.47584151    -0.20970
C838        C  0.38934998  0.89150987  0.98688705    -0.09020
C839        C  0.38235267  0.92059235  0.00203640     0.29840
C840        C  0.40634049  0.94406966  0.00539669    -0.20970
C841        C  0.43782237  0.93881552  0.99438910    -0.09030
C842        C  0.44485385  0.90951060  0.47976714     0.29850
F843        F  0.47467274  0.90339100  0.46829903    -0.19550
H844        H  0.42707342  0.86468605  0.46359378     0.18210
H845        H  0.40036743  0.96627232  0.01701013     0.18220
F846        F  0.35285613  0.92613391  0.01447792    -0.19540
C847        C  0.36496316  0.86577368  0.98158222     0.03460
C848        C  0.37468196  0.83370435  0.48446711    -0.12690
C849        C  0.35478305  0.80911028  0.47371389     0.00960
C850        C  0.32713699  0.81745718  0.45686056    -0.11210
C851        C  0.31186617  0.84628744  0.96478564     0.03450
C852        C  0.33219423  0.87176271  0.97425003    -0.10630
H853        H  0.39681291  0.82794122  0.49659486     0.09050
H854        H  0.31343876  0.79831787  0.44606041     0.06580
H855        H  0.32239281  0.89535283  0.97686281     0.06420
C856        C  0.36468958  0.72410439  0.50379040     0.03460
C857        C  0.37196202  0.75291179  0.48792949    -0.12690
C858        C  0.35242958  0.77925621  0.49232928     0.00960
C859        C  0.32679182  0.77695550  0.51338593    -0.11210
C860        C  0.31448371  0.74738447  0.52362692     0.03450
C861        C  0.33447080  0.72064296  0.51940645    -0.10630
H862        H  0.39279874  0.75487208  0.47262940     0.09050
H863        H  0.31438657  0.79882722  0.51804856     0.06580
H864        H  0.32709219  0.69778670  0.52886305     0.06420
C865        C  0.22604298  0.72645854  0.51619993     0.03460
C866        C  0.25890751  0.72035953  0.52316859    -0.12690
C867        C  0.27928274  0.74576885  0.53288202     0.00960
C868        C  0.26396508  0.77451998  0.54093897    -0.11210
C869        C  0.23640939  0.78294781  0.02376101     0.03450
C870        C  0.21661497  0.75845854  0.01268757    -0.10630
H871        H  0.26867770  0.69681589  0.51979925     0.09050
H872        H  0.27768565  0.79359935  0.55183818     0.06580
H873        H  0.19482586  0.76431480  0.00001995     0.06420
C874        C  0.22753876  0.86857460  0.99590464     0.03460
C875        C  0.25731610  0.87186856  0.97954914    -0.12690
C876        C  0.27671211  0.84486477  0.97422262     0.00960
C877        C  0.26407541  0.81523713  0.98397743    -0.11210
C878        C  0.23878466  0.81291748  0.00544405     0.03450
C879        C  0.21983058  0.83944103  0.01085214    -0.10630
H880        H  0.26479110  0.89483558  0.97044503     0.09050
H881        H  0.27609165  0.79326180  0.97876736     0.06580
H882        H  0.19904606  0.83740533  0.02622528     0.06420
C883        C  0.36586369  0.56582798  0.82302392     0.03460
C884        C  0.33321906  0.55854362  0.83096584    -0.12690
C885        C  0.31323343  0.54527970  0.80763029     0.00960
C886        C  0.32805756  0.53601069  0.77947187    -0.11210
C887        C  0.35456069  0.55271624  0.76792277     0.03450
C888        C  0.37459926  0.56728341  0.79034136    -0.10630
H889        H  0.32390922  0.56133730  0.85467869     0.09050
H890        H  0.31535142  0.52076333  0.76371168     0.06580
H891        H  0.39722995  0.57777839  0.78289521     0.06420
C892        C  0.22371628  0.52582439  0.82079950     0.03460
C893        C  0.25621525  0.53247682  0.82969140    -0.12690
C894        C  0.27710744  0.54553821  0.80703176     0.00960
C895        C  0.26331170  0.55485902  0.77846251    -0.11210
C896        C  0.23702595  0.53837962  0.76612093     0.03450
C897        C  0.21603460  0.52419525  0.78792885    -0.10630
H898        H  0.26463950  0.52918544  0.85366252     0.09050
H899        H  0.27666345  0.56993798  0.76311345     0.06580
H900        H  0.19365319  0.51368256  0.77983790     0.06420
C901        C  0.22449321  0.55430793  0.67881165     0.03460
C902        C  0.21481072  0.54679848  0.71030178    -0.12690
C903        C  0.23726999  0.53342244  0.73099592     0.00960
C904        C  0.26685942  0.52456501  0.71795934    -0.11210
C905        C  0.27949384  0.54170278  0.69244647     0.03450
C906        C  0.25779818  0.55621668  0.67201901    -0.10630
H907        H  0.19048077  0.55050686  0.71844933     0.09050
H908        H  0.28215028  0.50919302  0.73116199     0.06580
H909        H  0.26651552  0.56782657  0.65076124     0.06420
C910        C  0.36973422  0.53605076  0.68111097     0.03460
C911        C  0.37853612  0.54392856  0.71274978    -0.12690
C912        C  0.35546702  0.55752369  0.73279149     0.00960
C913        C  0.32631735  0.56643984  0.71893046    -0.11210
C914        C  0.31442618  0.54937012  0.69298155     0.03450
C915        C  0.33666089  0.53457457  0.67328349    -0.10630
H916        H  0.40267103  0.54059296  0.72147048     0.09050
H917        H  0.31072979  0.58202538  0.73164697     0.06580
H918        H  0.32860400  0.52336497  0.65153541     0.06420
C919        C  0.03540095  0.72303764  0.82168640     0.03460
C920        C  0.03710506  0.75570334  0.83048920    -0.12690
C921        C  0.04961098  0.77780889  0.80884263     0.00960
C922        C  0.06315652  0.76536636  0.78117189    -0.11210
C923        C  0.05167816  0.73680053  0.76797304     0.03450
C924        C  0.03891942  0.71429977  0.78926748    -0.10630
H925        H  0.02981436  0.76337767  0.85389633     0.09050
H926        H  0.07836173  0.78021472  0.76727025     0.06580
H927        H  0.03306672  0.69043649  0.78126612     0.06420
C928        C  0.05648325  0.86807000  0.82204150     0.03460
C929        C  0.05183430  0.87682238  0.78990810    -0.12690
C930        C  0.03927483  0.85418484  0.76878047     0.00960
C931        C  0.02867534  0.82536528  0.78190542    -0.11210
C932        C  0.04323418  0.81305244  0.80903669     0.03450
C933        C  0.05595207  0.83532208  0.83059335    -0.10630
H934        H  0.05697338  0.90083520  0.78195831     0.09050
H935        H  0.01298853  0.81049127  0.76852770     0.06580
H936        H  0.06391097  0.82772172  0.85375453     0.06420
C937        C  0.06143181  0.72474590  0.67780999     0.03460
C938        C  0.05978826  0.71542502  0.71031996    -0.12690
C939        C  0.04706757  0.73696662  0.73250725     0.00960
C940        C  0.03374534  0.76468494  0.72020822    -0.11210
C941        C  0.04571043  0.77844875  0.69251701     0.03450
C942        C  0.05834813  0.75756912  0.66994078    -0.10630
H943        H  0.06651954  0.69176117  0.71776540     0.09050
H944        H  0.01840282  0.77829270  0.73480593     0.06580
H945        H  0.06432271  0.76613875  0.64647437     0.06420
C946        C  0.03015905  0.86736963  0.67887639     0.03460
C947        C  0.03020331  0.87541938  0.71179608    -0.12690
C948        C  0.04412667  0.85440540  0.73349247     0.00960
C949        C  0.05940962  0.82788291  0.72083307    -0.11210
C950        C  0.04866253  0.81418510  0.69261212     0.03450
C951        C  0.03567207  0.83494868  0.67014874    -0.10630
H952        H  0.02081645  0.89794350  0.72001641     0.09050
H953        H  0.07512808  0.81476641  0.73550622     0.06580
H954        H  0.03159260  0.82620517  0.64642486     0.06420
O955        O  0.45352026  0.99314839  0.49830206    -0.79800
O956        O  0.13828004  0.99487843  0.00079756    -0.81350
O957        O  0.04893263  0.95433248  0.94851504    -0.78370
O958        O  0.04202179  0.95475343  0.55246124    -0.76760
O959        O  0.04434285  0.99378267  0.59026336    -0.78550
O960        O  0.04579624  0.99277225  0.91014254    -0.79480
O961        O  0.09943937  0.95608259  0.00104095    -0.80810
O962        O  0.49255734  0.95514252  0.49746095    -0.81090
Eu963      Eu  0.04587467  0.98090447  0.50038880     2.39200
O964        O  0.07922007  0.51332532  0.53246953    -0.88600
O965        O  0.01277737  0.51255418  0.96799824    -0.92210
C966        C  0.46287040  0.96394863  0.49703012     1.02480
C967        C  0.12913017  0.96545689  0.00073611     1.02300
C968        C  0.04826717  0.96360351  0.91940882     1.02240
C969        C  0.04182823  0.96435335  0.58156013     1.00100
H970        H  0.09118248  0.50029926  0.95529642     0.29850
O971        O  0.07785990  0.51375308  0.96828964    -1.00990
H972        H  0.00006126  0.49996923  0.54514585     0.29890
O973        O  0.01360657  0.51338102  0.53214375    -1.03530
O974        O  0.13837381  0.59827194  0.99789944    -0.80760
O975        O  0.45354829  0.59658246  0.50254095    -0.80300
O976        O  0.09793905  0.54294559  0.90968651    -0.78730
O977        O  0.09848159  0.54813227  0.59019477    -0.82070
O978        O  0.49459690  0.54394911  0.59104536    -0.79930
O979        O  0.49252109  0.54773777  0.91053332    -0.78580
O980        O  0.04408871  0.63644287  0.94736772    -0.80100
O981        O  0.04778865  0.63708621  0.55193390    -0.82020
O982        O  0.04337978  0.59741907  0.90927351    -0.78760
O983        O  0.04941141  0.59850437  0.59019854    -0.81440
O984        O  0.13710093  0.54173403  0.94760246    -0.77170
O985        O  0.45375356  0.54956963  0.94886889    -0.77210
O986        O  0.45553010  0.54275604  0.55301267    -0.76850
O987        O  0.13717531  0.54895776  0.55173685    -0.80350
O988        O  0.09939301  0.63634547  0.99935955    -0.79770
O989        O  0.49211673  0.63562621  0.50174657    -0.78100
Eu990      Eu  0.11103071  0.54630419  0.99958411     2.39770
Eu991      Eu  0.48074302  0.54521157  0.50047569     2.39570
Eu992      Eu  0.04536656  0.54543054  0.93597093     2.38400
Eu993      Eu  0.04638426  0.54604913  0.56398970     2.39880
Eu994      Eu  0.04579499  0.61072448  0.99979912     2.39790
O995        O  0.01320828  0.57833993  0.53256575    -0.92510
O996        O  0.07857841  0.57864790  0.96722368    -0.91410
C997        C  0.12910675  0.62749682  0.99884208     1.02660
C998        C  0.46245219  0.62605402  0.50253253     1.01370
C999        C  0.12750342  0.54058098  0.91857841     1.00760
C1000       C  0.12793541  0.54974649  0.58094072     1.02780
C1001       C  0.46505514  0.54227852  0.58208616     1.01690
C1002       C  0.46305171  0.55022550  0.91968951     1.00540
C1003       C  0.04283356  0.62679249  0.91831500     1.00600
C1004       C  0.04974454  0.62783532  0.58102457     1.03220
H1005       H  0.99982852  0.59104020  0.95561507     0.30590
O1006       O  0.01330519  0.57765406  0.96843669    -1.04680
H1007       H  0.09204048  0.59197048  0.54426839     0.32640
O1008       O  0.07844369  0.57848551  0.53137433    -1.07240
C1009       C  0.04445006  0.92244438  0.66109324    -0.20970
C1010       C  0.02912056  0.89311911  0.65447989    -0.09020
C1011       C  0.01690632  0.88809936  0.62369881     0.29840
C1012       C  0.02142769  0.91117525  0.60012265    -0.20970
C1013       C  0.03751245  0.94002893  0.60672777    -0.09030
C1014       C  0.04837970  0.94567167  0.63775944     0.29850
F1015       F  0.06399553  0.97314026  0.64541370    -0.19550
H1016       H  0.05475370  0.92709927  0.68418246     0.18210
H1017       H  0.01194597  0.90657478  0.57666602     0.18220
F1018       F  0.00017111  0.86125638  0.61628019    -0.19540
C1019       C  0.07752528  0.65049903  0.62856714    -0.20970
C1020       C  0.05327111  0.65270750  0.60554692    -0.09020
C1021       C  0.03300717  0.67919882  0.60573144     0.29840
C1022       C  0.03673258  0.70281474  0.62879687    -0.20970
C1023       C  0.06075582  0.70059620  0.65211579    -0.09030
C1024       C  0.08132971  0.67423374  0.65171791     0.29850
F1025       F  0.10534181  0.67170891  0.67324907    -0.19550
H1026       H  0.09384734  0.63062190  0.62825663     0.18210
H1027       H  0.52005575  0.72250035  0.62902407     0.18220
F1028       F  0.50881167  0.68162050  0.58434311    -0.19540
C1029       C  0.02594888  0.90680009  0.85383708    -0.20970
C1030       C  0.05565778  0.89282637  0.84677912    -0.09020
C1031       C  0.08305846  0.90202458  0.86393463     0.29840
C1032       C  0.08055964  0.92507916  0.88789719    -0.20970
C1033       C  0.05075777  0.93903865  0.89478096    -0.09030
C1034       C  0.02345347  0.92972702  0.87766442     0.29850
F1035       F  0.49435247  0.94240186  0.88443193    -0.19550
H1036       H  0.50455778  0.89957120  0.84103927     0.18210
H1037       H  0.10184863  0.93226206  0.90090847     0.18220
F1038       F  0.11205516  0.88908831  0.85723312    -0.19540
C1039       C  0.06448957  0.69460331  0.86381988    -0.20970
C1040       C  0.03593497  0.69848159  0.84661105    -0.09020
C1041       C  0.00949011  0.67853263  0.85299328     0.29840
C1042       C  0.01183564  0.65491702  0.87635498    -0.20970
C1043       C  0.04047655  0.65122923  0.89356161    -0.09030
C1044       C  0.06680207  0.67119059  0.88711024     0.29850
F1045       F  0.09494706  0.66751439  0.90285013    -0.19550
H1046       H  0.08521102  0.70959745  0.85887264     0.18210
H1047       H  0.49133427  0.63956124  0.88110491     0.18220
F1048       F  0.48154083  0.68207198  0.83690274    -0.19540
C1049       C  0.38649418  0.54830783  0.62606184    -0.20970
C1050       C  0.39383704  0.53402488  0.65529767    -0.09020
C1051       C  0.42469801  0.52138431  0.65975926     0.29840
C1052       C  0.44780754  0.52415041  0.63581046    -0.20970
C1053       C  0.44040982  0.53906386  0.60695022    -0.09030
C1054       C  0.40929821  0.55060614  0.60209317     0.29850
F1055       F  0.40121913  0.56543883  0.57472804    -0.19550
H1056       H  0.36327003  0.55899029  0.62201439     0.18210
H1057       H  0.47148610  0.51440709  0.63975650     0.18220
F1058       F  0.43251805  0.50606863  0.68688994    -0.19540
C1059       C  0.16979273  0.56875989  0.65851669    -0.20970
C1060       C  0.20071830  0.55692669  0.65278130    -0.09020
C1061       C  0.20757528  0.54376442  0.62270343     0.29840
C1062       C  0.18402919  0.54235923  0.59935410    -0.20970
C1063       C  0.15287352  0.55300681  0.60555120    -0.09030
C1064       C  0.14595262  0.56646121  0.63536163     0.29850
F1065       F  0.11612611  0.57721619  0.64233132    -0.19550
H1066       H  0.16375035  0.57927446  0.68114248     0.18210
H1067       H  0.18988959  0.53160850  0.57675127     0.18220
F1068       F  0.23634336  0.53017378  0.61627645    -0.19540
C1069       C  0.20329246  0.51444236  0.87583774    -0.20970
C1070       C  0.19767425  0.52566689  0.84500532    -0.09020
C1071       C  0.16832069  0.54109610  0.83870341     0.29840
C1072       C  0.14572394  0.54547610  0.86265689    -0.20970
C1073       C  0.15186808  0.53533371  0.89362189    -0.09030
C1074       C  0.18079095  0.51936216  0.89998350     0.29850
F1075       F  0.18727812  0.50820344  0.92941645    -0.19550
H1076       H  0.22534768  0.50223398  0.88147752     0.18210
H1077       H  0.12370328  0.55784426  0.85710099     0.18220
F1078       F  0.16205016  0.55395947  0.80993091    -0.19540
C1079       C  0.40942574  0.57059128  0.90237857    -0.20970
C1080       C  0.43843730  0.55529061  0.89494891    -0.09020
C1081       C  0.44419721  0.54623843  0.86341409     0.29840
C1082       C  0.42099636  0.55127306  0.84027829    -0.20970
C1083       C  0.39154579  0.56587303  0.84760996    -0.09030
C1084       C  0.38628498  0.57611701  0.87899079     0.29850
F1085       F  0.35913989  0.59179748  0.88716632    -0.19550
H1086       H  0.40476440  0.57866242  0.92631289     0.18210
H1087       H  0.42577112  0.54234047  0.81668899     0.18220
F1088       F  0.47178992  0.53141818  0.85494805    -0.19540
C1089       C  0.17116747  0.88636104  0.98965763    -0.20970
C1090       C  0.20327635  0.89424874  0.99661594    -0.09020
C1091       C  0.21103139  0.92586198  0.50485188     0.29840
C1092       C  0.18684196  0.94889112  0.50626661    -0.20970
C1093       C  0.15454083  0.94080493  0.99963199    -0.09030
C1094       C  0.14707499  0.90916008  0.99114006     0.29850
F1095       F  0.11661375  0.90013767  0.98363817    -0.19550
H1096       H  0.16467489  0.86226208  0.98284291     0.18210
H1097       H  0.19340352  0.97302438  0.51283855     0.18220
F1098       F  0.24164234  0.93426830  0.51238672    -0.19540
C1099       C  0.14637662  0.68168755  0.51589643    -0.20970
C1100       C  0.15417092  0.65275822  0.00114236    -0.09020
C1101       C  0.18611590  0.64797536  0.99103789     0.29840
C1102       C  0.20953865  0.67186286  0.99550858    -0.20970
C1103       C  0.20165280  0.70076750  0.51060814    -0.09030
C1104       C  0.16968408  0.70513316  0.52092129     0.29890
F1105       F  0.16097750  0.73164868  0.53714773    -0.19550
H1106       H  0.12227662  0.68582033  0.52463376     0.18210
H1107       H  0.23371375  0.66776435  0.98705564     0.18220
F1108       F  0.19470253  0.62040707  0.97661523    -0.19540
C1109       C  0.44518912  0.68265025  0.00905782    -0.20970
C1110       C  0.43685962  0.65062179  0.50339049    -0.09020
C1111       C  0.40408585  0.64275378  0.49864335     0.29840
C1112       C  0.38061094  0.66651364  0.49904059    -0.20970
C1113       C  0.38918880  0.69850178  0.50413325    -0.09030
C1114       C  0.42178841  0.70624121  0.00963998     0.29850
F1115       F  0.43109071  0.73660001  0.01627230    -0.19550
H1116       H  0.46994835  0.68954113  0.01332677     0.18210
H1117       H  0.35577462  0.65994016  0.49475043     0.18220
F1118       F  0.39458742  0.61225386  0.49305982    -0.19540
C1119       C  0.42090384  0.88652042  0.97598073    -0.20970
C1120       C  0.38935817  0.89144145  0.48680966    -0.09020
C1121       C  0.38237121  0.92049853  0.50201195     0.29840
C1122       C  0.40634470  0.94398993  0.50535178    -0.20970
C1123       C  0.43780350  0.93877353  0.49427476    -0.09030
C1124       C  0.44487204  0.90953365  0.97992358     0.29850
F1125       F  0.47470279  0.90337870  0.96850807    -0.19550
H1126       H  0.42709076  0.86470797  0.96376537     0.18210
H1127       H  0.40038136  0.96617189  0.51700903     0.18220
F1128       F  0.35289982  0.92599874  0.51452930    -0.19540
C1129       C  0.86498808  0.36571632  0.48151162     0.03460
C1130       C  0.87467531  0.33376973  0.98457032    -0.12690
C1131       C  0.85481245  0.30916929  0.97377114     0.00960
C1132       C  0.82720038  0.31750634  0.95686020    -0.11210
C1133       C  0.81184565  0.34625050  0.46482041     0.03450
C1134       C  0.83220460  0.37171657  0.47424753    -0.10630
H1135       H  0.89678123  0.32801346  0.99674558     0.09050
H1136       H  0.81353426  0.29836306  0.94602803     0.06580
H1137       H  0.82241612  0.39530894  0.47688912     0.06420
C1138       C  0.86469967  0.22415822  0.00383477     0.03460
C1139       C  0.87199069  0.25297556  0.98800034    -0.12690
C1140       C  0.85243846  0.27930961  0.99237362     0.00960
C1141       C  0.82676397  0.27699246  0.01338380    -0.11210
C1142       C  0.81445297  0.24741400  0.02360038     0.03450
C1143       C  0.83445717  0.22068125  0.01940319    -0.10630
H1144       H  0.89285248  0.25494926  0.97273506     0.09050
H1145       H  0.81433926  0.29885767  0.01802557     0.06580
H1146       H  0.82707022  0.19781795  0.02883696     0.06420
C1147       C  0.72603847  0.22645081  0.01602506     0.03460
C1148       C  0.75889023  0.22036190  0.02305838    -0.12690
C1149       C  0.77923790  0.24578225  0.03279868     0.00960
C1150       C  0.76389230  0.27452820  0.04082075    -0.11210
C1151       C  0.73645151  0.28295264  0.52394493     0.03450
C1152       C  0.71661595  0.25847229  0.51291421    -0.10630
H1153       H  0.76867189  0.19681824  0.01972345     0.09050
H1154       H  0.77758067  0.29361446  0.05174692     0.06580
H1155       H  0.69479979  0.26434167  0.50029854     0.06420
C1156       C  0.72758163  0.36858011  0.49606997     0.03460
C1157       C  0.75733416  0.37185496  0.47966916    -0.12690
C1158       C  0.77670987  0.34484228  0.47432494     0.00960
C1159       C  0.76407592  0.31522291  0.48411082    -0.11210
C1160       C  0.73881717  0.31292042  0.50561812     0.03450
C1161       C  0.71988551  0.33945703  0.51104593    -0.10630
H1162       H  0.76480107  0.39481291  0.47053631     0.09050
H1163       H  0.77607105  0.29324073  0.47888214     0.06580
H1164       H  0.69912132  0.33743709  0.52644750     0.06420
C1165       C  0.86586486  0.06579608  0.32302338     0.03460
C1166       C  0.83322163  0.05850894  0.33096839    -0.12690
C1167       C  0.81323293  0.04525231  0.30763207     0.00960
C1168       C  0.82805396  0.03599002  0.27946986    -0.11210
C1169       C  0.85455597  0.05269908  0.26792304     0.03450
C1170       C  0.87459605  0.06726134  0.29034152    -0.10630
H1171       H  0.82391426  0.06129560  0.35468287     0.09050
H1172       H  0.81534650  0.02074685  0.26370703     0.06580
H1173       H  0.89722488  0.07776016  0.28289499     0.06420
C1174       C  0.72371103  0.02582057  0.32080648     0.03460
C1175       C  0.75621336  0.03245969  0.32969583    -0.12690
C1176       C  0.77710726  0.04551882  0.30703643     0.00960
C1177       C  0.76331154  0.05485135  0.27847128    -0.11210
C1178       C  0.73701981  0.03838304  0.26612780     0.03450
C1179       C  0.71602604  0.02420010  0.28793536    -0.10630
H1180       H  0.76463926  0.02916105  0.35366533     0.09050
H1181       H  0.77666655  0.06993017  0.26312499     0.06580
H1182       H  0.69364075  0.01369590  0.27984430     0.06420
C1183       C  0.72448574  0.05432630  0.17881790     0.03460
C1184       C  0.71480258  0.04681478  0.21030795    -0.12690
C1185       C  0.73726133  0.03343422  0.23100064     0.00960
C1186       C  0.76684924  0.02457602  0.21796113    -0.11210
C1187       C  0.77948498  0.04171783  0.19245167     0.03450
C1188       C  0.75779071  0.05623622  0.17202652    -0.10630
H1189       H  0.69047259  0.05052330  0.21845532     0.09050
H1190       H  0.78213802  0.00919863  0.23115937     0.06580
H1191       H  0.76650881  0.06784787  0.15076997     0.06420
C1192       C  0.86972289  0.03605487  0.18111152     0.03460
C1193       C  0.87852714  0.04392399  0.21275085    -0.12690
C1194       C  0.85546109  0.05751811  0.23279526     0.00960
C1195       C  0.82631271  0.06644292  0.21893816    -0.11210
C1196       C  0.81441788  0.04938050  0.19298638     0.03450
C1197       C  0.83664936  0.03458525  0.17328458    -0.10630
H1198       H  0.90266189  0.04058324  0.22147011     0.09050
H1199       H  0.81072875  0.08202889  0.23165870     0.06580
H1200       H  0.82859036  0.02338249  0.15153384     0.06420
C1201       C  0.53539433  0.22306012  0.32169801     0.03460
C1202       C  0.53711753  0.25572636  0.33049557    -0.12690
C1203       C  0.54962018  0.27782406  0.30884020     0.00960
C1204       C  0.56314500  0.26537403  0.28116319    -0.11210
C1205       C  0.55164799  0.23681157  0.26797360     0.03450
C1206       C  0.53888936  0.21431805  0.28927702    -0.10630
H1207       H  0.52984133  0.26340704  0.35390509     0.09050
H1208       H  0.57834669  0.28021613  0.26725073     0.06580
H1209       H  0.53302176  0.19045663  0.28128051     0.06420
C1210       C  0.55651877  0.36808422  0.32202423     0.03460
C1211       C  0.55185002  0.37683447  0.28989334    -0.12690
C1212       C  0.53927252  0.35419790  0.26877559     0.00960
C1213       C  0.52867865  0.32538000  0.28190849    -0.11210
C1214       C  0.54325200  0.31306838  0.30903270     0.03450
C1215       C  0.55598755  0.33533752  0.33057947    -0.10630
H1216       H  0.55698709  0.40084603  0.28193863     0.09050
H1217       H  0.51298642  0.31050421  0.26853878     0.06580
H1218       H  0.56395807  0.32773803  0.35373705     0.06420
C1219       C  0.56139501  0.22475588  0.17781296     0.03460
C1220       C  0.55974965  0.21543506  0.21032239    -0.12690
C1221       C  0.54702548  0.23697507  0.23250916     0.00960
C1222       C  0.53370327  0.26469488  0.22021034    -0.11210
C1223       C  0.54566529  0.27845741  0.19251586     0.03450
C1224       C  0.55830681  0.25757778  0.16994228    -0.10630
H1225       H  0.56648530  0.19177257  0.21776833     0.09050
H1226       H  0.51836270  0.27830432  0.23480953     0.06580
H1227       H  0.56428314  0.26614705  0.14647617     0.06420
C1228       C  0.53011983  0.36738293  0.17887277     0.03460
C1229       C  0.53017331  0.37542949  0.21179399    -0.12690
C1230       C  0.54410526  0.35441538  0.23348545     0.00960
C1231       C  0.55938083  0.32789137  0.22082191    -0.11210
C1232       C  0.54862072  0.31419399  0.19260660     0.03450
C1233       C  0.53562696  0.33495957  0.17014524    -0.10630
H1234       H  0.52078646  0.39795141  0.22002006     0.09050
H1235       H  0.57510222  0.31477270  0.23549062     0.06580
H1236       H  0.53153960  0.32621361  0.14642400     0.06420
O1237       O  0.95355274  0.49317929  0.99839666    -0.79800
O1238       O  0.63832297  0.49489880  0.50082314    -0.81350
O1239       O  0.54900162  0.45433270  0.44850346    -0.78370
O1240       O  0.54204648  0.45477409  0.05246283    -0.76760
O1241       O  0.54436387  0.49380732  0.09026253    -0.78550
O1242       O  0.54584023  0.49277774  0.41013837    -0.79480
O1243       O  0.59948851  0.45609706  0.50106723    -0.80810
O1244       O  0.99258406  0.45516925  0.99753032    -0.81090
Eu1245     Eu  0.54590040  0.48091603  0.00038427     2.39200
O1246       O  0.57925119  0.01331965  0.03248199    -0.88600
O1247       O  0.51275813  0.01256282  0.46798996    -0.92210
C1248       C  0.96289672  0.46397914  0.99712822     1.02480
C1249       C  0.62917787  0.46547532  0.50077390     1.02300
C1250       C  0.54832682  0.46360873  0.41939925     1.02240
C1251       C  0.54184024  0.46437729  0.08156117     1.00100
H1252       H  0.59115724  0.00030254  0.45531627     0.29850
O1253       O  0.57782778  0.01375534  0.46830368    -1.00990
H1254       H  0.50029028  0.00112096  0.04429226     0.29890
O1255       O  0.51444699  0.01393601  0.03167867    -1.03530
O1256       O  0.63834321  0.09829235  0.49796132    -0.80760
O1257       O  0.95354317  0.09662909  0.00255073    -0.80300
O1258       O  0.59793456  0.04295497  0.40969510    -0.78730
O1259       O  0.59851163  0.04815730  0.09020245    -0.82070
O1260       O  0.99458370  0.04397871  0.09104884    -0.79930
O1261       O  0.99253611  0.04772953  0.41052116    -0.78580
O1262       O  0.54408795  0.13644681  0.44737151    -0.80100
O1263       O  0.54780947  0.13710304  0.05192357    -0.82020
O1264       O  0.54336484  0.09742759  0.40927363    -0.78760
O1265       O  0.54943216  0.09854735  0.09020133    -0.81440
O1266       O  0.63708634  0.04173622  0.44761964    -0.77170
O1267       O  0.95375552  0.04954660  0.44884647    -0.77210
O1268       O  0.95551330  0.04280064  0.05301908    -0.76850
O1269       O  0.63717639  0.04895694  0.05173219    -0.80350
O1270       O  0.59936482  0.13636777  0.49943097    -0.79770
O1271       O  0.99212022  0.13566397  0.00175162    -0.78100
Eu1272     Eu  0.61099409  0.04631406  0.49959346     2.39770
Eu1273     Eu  0.98071933  0.04524678  0.00047998     2.39570
Eu1274     Eu  0.54535665  0.04543878  0.43597136     2.38400
Eu1275     Eu  0.54652047  0.04615453  0.06404922     2.39880
Eu1276     Eu  0.54576934  0.11072113  0.49980114     2.39790
O1277       O  0.51319792  0.07837443  0.03259635    -0.92510
O1278       O  0.57856894  0.07866758  0.46721686    -0.91410
C1279       C  0.62907977  0.12751937  0.49892595     1.02660
C1280       C  0.96245363  0.12609894  0.00254351     1.01370
C1281       C  0.62749699  0.04058748  0.41859246     1.00760
C1282       C  0.62794726  0.04975469  0.08093781     1.02780
C1283       C  0.96504108  0.04231660  0.08209133     1.01690
C1284       C  0.96306341  0.05020797  0.41967079     1.00540
C1285       C  0.54282767  0.12680053  0.41831749     1.00600
C1286       C  0.54975809  0.12786284  0.08101685     1.03220
H1287       H  0.49981037  0.09103449  0.45561051     0.30590
O1288       O  0.51328081  0.07764682  0.46843714    -1.04680
H1289       H  0.59207666  0.09200516  0.04425578     0.32640
O1290       O  0.57848066  0.07852436  0.03136312    -1.07240
C1291       C  0.54437356  0.42247700  0.16110599    -0.20970
C1292       C  0.52907679  0.39313793  0.15447681    -0.09020
C1293       C  0.51689392  0.38811515  0.12368300     0.29840
C1294       C  0.52142910  0.41119398  0.10011042    -0.20970
C1295       C  0.53749419  0.44005570  0.10673004    -0.09030
C1296       C  0.54831233  0.44570807  0.13777666     0.29850
F1297       F  0.56389213  0.47319033  0.14545234    -0.19550
H1298       H  0.55464899  0.42714166  0.18420517     0.18210
H1299       H  0.51197636  0.40658731  0.07664358     0.18220
F1300       F  0.50017758  0.36126593  0.11624613    -0.19540
C1301       C  0.57752729  0.15052238  0.12856344    -0.20970
C1302       C  0.55327511  0.15272752  0.10553953    -0.09020
C1303       C  0.53299927  0.17920693  0.10572641     0.29840
C1304       C  0.53671035  0.20281927  0.12879650    -0.20970
C1305       C  0.56073115  0.20060708  0.15211834    -0.09030
C1306       C  0.58131725  0.17425398  0.15171939     0.29850
F1307       F  0.60532660  0.17173584  0.17325435    -0.19550
H1308       H  0.59385756  0.13065141  0.12825253     0.18210
H1309       H  0.02008098  0.22251722  0.12901386     0.18220
F1310       F  0.00883424  0.18164034  0.08433214    -0.19540
C1311       C  0.52600328  0.40683992  0.35380323    -0.20970
C1312       C  0.55570392  0.39284253  0.34675965    -0.09020
C1313       C  0.58310259  0.40201437  0.36393206     0.29840
C1314       C  0.58060947  0.42506644  0.38789769    -0.20970
C1315       C  0.55081538  0.43904910  0.39476685    -0.09030
C1316       C  0.52351361  0.42976388  0.37763304     0.29850
F1317       F  0.99440191  0.44253729  0.38431839    -0.19550
H1318       H  0.00458770  0.39969510  0.34093461     0.18210
H1319       H  0.60189662  0.43222926  0.40092243     0.18220
F1320       F  0.61209197  0.38905543  0.35724379    -0.19540
C1321       C  0.56444062  0.19470081  0.36391314    -0.20970
C1322       C  0.53592245  0.19850740  0.34662805    -0.09020
C1323       C  0.50951727  0.17847986  0.35292962     0.29840
C1324       C  0.51186661  0.15485856  0.37628519    -0.20970
C1325       C  0.54047098  0.15124178  0.39356693    -0.09030
C1326       C  0.56675660  0.17128196  0.38719703     0.29850
F1327       F  0.59487200  0.16767193  0.40300435    -0.19550
H1328       H  0.58513514  0.20975172  0.35902605     0.18210
H1329       H  0.99124763  0.13975707  0.38131047     0.18220
F1330       F  0.98145767  0.18227033  0.33710884    -0.19540
C1331       C  0.88648274  0.04833648  0.12606967    -0.20970
C1332       C  0.89382452  0.03403818  0.15529802    -0.09020
C1333       C  0.92468465  0.02139432  0.15975492     0.29840
C1334       C  0.94779461  0.02417113  0.13580836    -0.20970
C1335       C  0.94039776  0.03909895  0.10695549    -0.09030
C1336       C  0.90928725  0.05064564  0.10210306     0.29850
F1337       F  0.90120940  0.06549127  0.07474457    -0.19550
H1338       H  0.86325920  0.05902214  0.12202716     0.18210
H1339       H  0.97147227  0.01442374  0.13974969     0.18220
F1340       F  0.93250323  0.00606522  0.18687854    -0.19540
C1341       C  0.66978658  0.06877449  0.15851670    -0.20970
C1342       C  0.70071293  0.05694219  0.15278506    -0.09020
C1343       C  0.70757356  0.04377919  0.12270801     0.29840
C1344       C  0.68403031  0.04237164  0.09935619    -0.20970
C1345       C  0.65287564  0.05301726  0.10554918    -0.09030
C1346       C  0.64594955  0.06647480  0.13535871     0.29850
F1347       F  0.61612238  0.07723130  0.14232488    -0.19550
H1348       H  0.66374165  0.07928932  0.18114169     0.18210
H1349       H  0.68989309  0.03162017  0.07675437     0.18220
F1350       F  0.73634295  0.03018981  0.11628426    -0.19540
C1351       C  0.70328795  0.01444476  0.37584880    -0.20970
C1352       C  0.69767108  0.02567086  0.34501619    -0.09020
C1353       C  0.66832215  0.04110978  0.33871795     0.29840
C1354       C  0.64572730  0.04549380  0.36267315    -0.20970
C1355       C  0.65186727  0.03534494  0.39363736    -0.09030
C1356       C  0.68078829  0.01936873  0.39999668     0.29850
F1357       F  0.68727452  0.00820748  0.42942876    -0.19550
H1358       H  0.72534018  0.00223040  0.38148695     0.18210
H1359       H  0.62370972  0.05786771  0.35711846     0.18220
F1360       F  0.66205373  0.05397654  0.30994646    -0.19540
C1361       C  0.90943646  0.07055846  0.40236662    -0.20970
C1362       C  0.93845200  0.05526970  0.39493010    -0.09020
C1363       C  0.94421184  0.04622157  0.36339466     0.29840
C1364       C  0.92100455  0.05124965  0.34026375    -0.20970
C1365       C  0.89155026  0.06583994  0.34760338    -0.09030
C1366       C  0.88629046  0.07607778  0.37898535     0.29850
F1367       F  0.85914063  0.09174546  0.38716947    -0.19550
H1368       H  0.90477495  0.07862475  0.42630255     0.18210
H1369       H  0.92577768  0.04232089  0.31667264     0.18220
F1370       F  0.97180915  0.03141157  0.35492456    -0.19540
C1371       C  0.67120728  0.38635489  0.48984251    -0.20970
C1372       C  0.70331933  0.39425416  0.49677030    -0.09020
C1373       C  0.71102585  0.42584057  0.00476669     0.29840
C1374       C  0.68684193  0.44887073  0.00620764    -0.20970
C1375       C  0.65458995  0.44082203  0.49970600    -0.09030
C1376       C  0.64711846  0.40915885  0.49128497     0.29850
F1377       F  0.61665428  0.40012017  0.48381397    -0.19550
H1378       H  0.66470941  0.36224341  0.48307667     0.18210
H1379       H  0.69340438  0.47299232  0.01282103     0.18220
F1380       F  0.74163427  0.43422778  0.01233125    -0.19540
C1381       C  0.64637158  0.18169772  0.01571002    -0.20970
C1382       C  0.65414951  0.15277959  0.50126541    -0.09020
C1383       C  0.68608159  0.14802678  0.49110540     0.29840
C1384       C  0.70951010  0.17190678  0.49560075    -0.20970
C1385       C  0.70165329  0.20075728  0.01044187    -0.09030
C1386       C  0.66967294  0.20515073  0.02070684     0.29890
F1387       F  0.66094682  0.23170081  0.03686649    -0.19550
H1388       H  0.62226313  0.18585490  0.02441239     0.18210
H1389       H  0.73367216  0.16783208  0.48709940     0.18220
F1390       F  0.69464773  0.12049796  0.47659618    -0.19540
C1391       C  0.94517846  0.18262313  0.50896413    -0.20970
C1392       C  0.93686504  0.15067107  0.00341320    -0.09020
C1393       C  0.90409604  0.14281383  0.99861909     0.29840
C1394       C  0.88062249  0.16657441  0.99902985    -0.20970
C1395       C  0.88919649  0.19855347  0.00418255    -0.09030
C1396       C  0.92177890  0.20621226  0.50953609     0.29850
F1397       F  0.93108925  0.23658153  0.51611001    -0.19550
H1398       H  0.96994268  0.18952344  0.51319034     0.18210
H1399       H  0.85579105  0.16001005  0.99469922     0.18220
F1400       F  0.89460243  0.11232461  0.99297063    -0.19540
C1401       C  0.92092133  0.38648753  0.47584397    -0.20970
C1402       C  0.88935133  0.39150468  0.98689253    -0.09020
C1403       C  0.88235500  0.42058654  0.00204400     0.29840
C1404       C  0.90634213  0.44406389  0.00540349    -0.20970
C1405       C  0.93781957  0.43881101  0.99439025    -0.09030
C1406       C  0.94489012  0.40950380  0.47978880     0.29850
F1407       F  0.97470546  0.40338397  0.46831243    -0.19550
H1408       H  0.92709250  0.36469587  0.46358385     0.18210
H1409       H  0.90037125  0.46626670  0.01701744     0.18220
F1410       F  0.85285959  0.42612766  0.01448768    -0.19540
C1411       C  0.86496357  0.36576968  0.98158636     0.03460
C1412       C  0.87469719  0.33371225  0.48446659    -0.12690
C1413       C  0.85479382  0.30911875  0.47371765     0.00960
C1414       C  0.82715308  0.31746492  0.45685874    -0.11210
C1415       C  0.81186436  0.34628702  0.96479228     0.03450
C1416       C  0.83219431  0.37176060  0.97425708    -0.10630
H1417       H  0.89682745  0.32794777  0.49659470     0.09050
H1418       H  0.81345505  0.29832563  0.44605818     0.06580
H1419       H  0.82239390  0.39535084  0.97687259     0.06420
C1420       C  0.86468666  0.22411671  0.50379238     0.03460
C1421       C  0.87196069  0.25292232  0.48793194    -0.12690
C1422       C  0.85243252  0.27926721  0.49233473     0.00960
C1423       C  0.82679053  0.27696527  0.51338798    -0.11210
C1424       C  0.81448166  0.24739235  0.52362693     0.03450
C1425       C  0.83446905  0.22065307  0.51940763    -0.10630
H1426       H  0.89279707  0.25488150  0.47263115     0.09050
H1427       H  0.81438541  0.29883676  0.51805162     0.06580
H1428       H  0.82709140  0.19779665  0.52886469     0.06420
C1429       C  0.72604240  0.22645489  0.51619830     0.03460
C1430       C  0.75890776  0.22035825  0.52316800    -0.12690
C1431       C  0.77928154  0.24577009  0.53288204     0.00960
C1432       C  0.76396233  0.27451864  0.54093918    -0.11210
C1433       C  0.73641055  0.28294897  0.02377356     0.03450
C1434       C  0.71661303  0.25846203  0.01270036    -0.10630
H1435       H  0.76867921  0.19681510  0.51979890     0.09050
H1436       H  0.77768161  0.29359856  0.55183919     0.06580
H1437       H  0.69482219  0.26432087  0.00003683     0.06420
C1438       C  0.72753936  0.36857631  0.99591697     0.03460
C1439       C  0.75731568  0.37186950  0.97955926    -0.12690
C1440       C  0.77671111  0.34486539  0.97423231     0.00960
C1441       C  0.76407479  0.31523826  0.98398869    -0.11210
C1442       C  0.73878617  0.31291943  0.00545778     0.03450
C1443       C  0.71983277  0.33944336  0.01086672    -0.10630
H1444       H  0.76479011  0.39483585  0.97045309     0.09050
H1445       H  0.77608967  0.29326262  0.97877692     0.06580
H1446       H  0.69904943  0.33740807  0.02624145     0.06420
C1447       C  0.86585932  0.06582283  0.82302661     0.03460
C1448       C  0.83321417  0.05853945  0.83096866    -0.12690
C1449       C  0.81322723  0.04527745  0.80763232     0.00960
C1450       C  0.82805057  0.03600809  0.77947423    -0.11210
C1451       C  0.85455122  0.05271614  0.76792499     0.03450
C1452       C  0.87459298  0.06728012  0.79034350    -0.10630
H1453       H  0.82390467  0.06133298  0.85468163     0.09050
H1454       H  0.81534383  0.02076105  0.76371341     0.06580
H1455       H  0.89722348  0.07777502  0.78289659     0.06420
C1456       C  0.72370959  0.02582781  0.82079965     0.03460
C1457       C  0.75620889  0.03247763  0.82969110    -0.12690
C1458       C  0.77710127  0.04553821  0.80703195     0.00960
C1459       C  0.76330576  0.05486059  0.77846241    -0.11210
C1460       C  0.73701451  0.03838792  0.76612128     0.03450
C1461       C  0.71602557  0.02420166  0.78792955    -0.10630
H1462       H  0.76463347  0.02918513  0.85366197     0.09050
H1463       H  0.77665934  0.06993751  0.76311340     0.06580
H1464       H  0.69364303  0.01369078  0.77983942     0.06420
C1465       C  0.72446765  0.05430450  0.67880447     0.03460
C1466       C  0.71479054  0.04680349  0.71029946    -0.12690
C1467       C  0.73725321  0.03343247  0.73099539     0.00960
C1468       C  0.76684014  0.02457289  0.71795861    -0.11210
C1469       C  0.77947264  0.04171011  0.69244666     0.03450
C1470       C  0.75777427  0.05621218  0.67201021    -0.10630
H1471       H  0.69046193  0.05051405  0.71844944     0.09050
H1472       H  0.78213379  0.00920632  0.73116454     0.06580
H1473       H  0.76649100  0.06781580  0.65074894     0.06420
C1474       C  0.86970821  0.03603471  0.68112033     0.03460
C1475       C  0.87851736  0.04392033  0.71275409    -0.12690
C1476       C  0.85545376  0.05752449  0.73279428     0.00960
C1477       C  0.82630286  0.06644290  0.71893347    -0.11210
C1478       C  0.81440617  0.04937288  0.69298503     0.03450
C1479       C  0.83663517  0.03455891  0.67329723    -0.10630
H1480       H  0.90265394  0.04058515  0.72147107     0.09050
H1481       H  0.81072082  0.08203644  0.73164701     0.06580
H1482       H  0.82857511  0.02334361  0.65155312     0.06420
C1483       C  0.53539372  0.22305615  0.82169672     0.03460
C1484       C  0.53711529  0.25572257  0.83049386    -0.12690
C1485       C  0.54962063  0.27781985  0.80883982     0.00960
C1486       C  0.56314946  0.26536872  0.78116471    -0.11210
C1487       C  0.55165537  0.23680510  0.76797398     0.03450
C1488       C  0.53889348  0.21431281  0.78927655    -0.10630
H1489       H  0.52983617  0.26340363  0.85390239     0.09050
H1490       H  0.57835397  0.28021001  0.76725473     0.06580
H1491       H  0.53302749  0.19045094  0.78128032     0.06420
C1492       C  0.55650474  0.36808222  0.82203054     0.03460
C1493       C  0.55184936  0.37683230  0.78989686    -0.12690
C1494       C  0.53928428  0.35419307  0.76877324     0.00960
C1495       C  0.52868685  0.32537563  0.78190307    -0.11210
C1496       C  0.54325202  0.31306447  0.80903117     0.03450
C1497       C  0.55597480  0.33533478  0.83058431    -0.10630
H1498       H  0.55698608  0.40084471  0.78194457     0.09050
H1499       H  0.51299818  0.31050014  0.76852941     0.06580
H1500       H  0.56393655  0.32773563  0.85374495     0.06420
C1501       C  0.56139918  0.22473676  0.67781052     0.03460
C1502       C  0.55975517  0.21542043  0.71032205    -0.12690
C1503       C  0.54703825  0.23696632  0.73250819     0.00960
C1504       C  0.53372067  0.26468655  0.72020720    -0.11210
C1505       C  0.54568555  0.27844575  0.69251321     0.03450
C1506       C  0.55831825  0.25756034  0.66993814    -0.10630
H1507       H  0.56648501  0.19175699  0.71777009     0.09050
H1508       H  0.51838105  0.27829853  0.73480456     0.06580
H1509       H  0.56429330  0.26612654  0.64647066     0.06420
C1510       C  0.53014442  0.36737260  0.67886833     0.03460
C1511       C  0.53019526  0.37542171  0.71178885    -0.12690
C1512       C  0.54412435  0.35440892  0.73348310     0.00960
C1513       C  0.55939910  0.32788219  0.72082183    -0.11210
C1514       C  0.54864283  0.31418345  0.69260454     0.03450
C1515       C  0.53565123  0.33494891  0.67014219    -0.10630
H1516       H  0.52080903  0.39794496  0.72001212     0.09050
H1517       H  0.57511904  0.31476422  0.73549238     0.06580
H1518       H  0.53156583  0.32620292  0.64642059     0.06420
O1519       O  0.95357803  0.49312891  0.49836271    -0.79800
O1520       O  0.63827817  0.49487950  0.00079883    -0.81350
O1521       O  0.54893443  0.45433528  0.94851216    -0.78370
O1522       O  0.54208450  0.45475720  0.55245416    -0.76760
O1523       O  0.54439806  0.49378793  0.59025674    -0.78550
O1524       O  0.54579961  0.49277609  0.91014060    -0.79480
O1525       O  0.59943749  0.45608375  0.00104291    -0.80810
O1526       O  0.99261775  0.45512657  0.49748250    -0.81090
Eu1527     Eu  0.54594163  0.48090311  0.50037720     2.39200
O1528       O  0.57915837  0.01332589  0.53246963    -0.88600
O1529       O  0.51275991  0.01252816  0.96798768    -0.92210
C1530       C  0.96292801  0.46393023  0.49707695     1.02480
C1531       C  0.62912837  0.46545794  0.00073865     1.02300
C1532       C  0.54827147  0.46360725  0.91940602     1.02240
C1533       C  0.54187834  0.46435860  0.58155316     1.00100
H1534       H  0.59120538  0.00030749  0.95527018     0.29850
O1535       O  0.57788677  0.01376197  0.96826050    -1.00990
H1536       H  0.49995339  0.99995803  0.54515727     0.29890
O1537       O  0.51350969  0.01336517  0.53215923    -1.03530
O1538       O  0.63837015  0.09827934  0.99789816    -0.80760
O1539       O  0.95352169  0.09660165  0.50251860    -0.80300
O1540       O  0.59793532  0.04295651  0.90968746    -0.78730
O1541       O  0.59841909  0.04811588  0.59019845    -0.82070
O1542       O  0.99453201  0.04397420  0.59103436    -0.79930
O1543       O  0.99252207  0.04773689  0.91053370    -0.78580
O1544       O  0.54409203  0.13644730  0.94736874    -0.80100
O1545       O  0.54777898  0.13707061  0.55193842    -0.82020
O1546       O  0.54336817  0.09742547  0.90927327    -0.78760
O1547       O  0.54934609  0.09848650  0.59020429    -0.81440
O1548       O  0.63709906  0.04174168  0.94760284    -0.77170
O1549       O  0.95375498  0.04956645  0.94886990    -0.77210
O1550       O  0.95546439  0.04282659  0.55300182    -0.76850
O1551       O  0.63711937  0.04894152  0.55174639    -0.80350
O1552       O  0.59938693  0.13635191  0.99936161    -0.79770
O1553       O  0.99210194  0.13563526  0.50174331    -0.78100
Eu1554     Eu  0.61103358  0.04631081  0.99958283     2.39770
Eu1555     Eu  0.98069287  0.04522362  0.50046403     2.39570
Eu1556     Eu  0.54535596  0.04543831  0.93597292     2.38400
Eu1557     Eu  0.54631791  0.04604115  0.56398459     2.39880
Eu1558     Eu  0.54578376  0.11072716  0.99979861     2.39790
O1559       O  0.51317296  0.07834366  0.53254437    -0.92510
O1560       O  0.57857296  0.07865276  0.96722522    -0.91410
C1561       C  0.62910160  0.12750397  0.99884246     1.02660
C1562       C  0.96243509  0.12606969  0.50252094     1.01370
C1563       C  0.62750048  0.04059046  0.91857903     1.00760
C1564       C  0.62787612  0.04972768  0.58094879     1.02780
C1565       C  0.96499017  0.04233180  0.58207546     1.01690
C1566       C  0.96305262  0.05022336  0.91969030     1.00540
C1567       C  0.54282973  0.12679868  0.91831580     1.00600
C1568       C  0.54970937  0.12781698  0.58103033     1.03220
H1569       H  0.49980535  0.09104434  0.95561738     0.30590
O1570       O  0.51327495  0.07765585  0.96844020    -1.04680
H1571       H  0.59199267  0.09195230  0.54427940     0.32640
O1572       O  0.57839633  0.07847232  0.53137985    -1.07240
C1573       C  0.54441197  0.42246086  0.66109775    -0.20970
C1574       C  0.52910702  0.39312557  0.65447104    -0.09020
C1575       C  0.51692265  0.38810266  0.62367798     0.29840
C1576       C  0.52146270  0.41117837  0.60010355    -0.20970
C1577       C  0.53753427  0.44003682  0.60672111    -0.09030
C1578       C  0.54835611  0.44568877  0.63776654     0.29850
F1579       F  0.56394360  0.47316768  0.64543926    -0.19550
H1580       H  0.55468913  0.42712451  0.68419642     0.18210
H1581       H  0.51200755  0.40657268  0.57663748     0.18220
F1582       F  0.50019986  0.36125651  0.61624410    -0.19540
C1583       C  0.57749015  0.15047775  0.62857724    -0.20970
C1584       C  0.55323860  0.15268704  0.60555413    -0.09020
C1585       C  0.53298126  0.17918233  0.60573174     0.29840
C1586       C  0.53670721  0.20280104  0.62879433    -0.20970
C1587       C  0.56072580  0.20058253  0.65211793    -0.09030
C1588       C  0.58129660  0.17421657  0.65172499     0.29850
F1589       F  0.60530889  0.17169357  0.67325630    -0.19550
H1590       H  0.59380957  0.13059866  0.62826984     0.18210
H1591       H  0.02008257  0.22249928  0.62901183     0.18220
F1592       F  0.00881567  0.18161204  0.58434324    -0.19540
C1593       C  0.52596373  0.40680296  0.85383130    -0.20970
C1594       C  0.55567613  0.39283880  0.84676846    -0.09020
C1595       C  0.58307586  0.40204321  0.86392260     0.29840
C1596       C  0.58057245  0.42509458  0.88788800    -0.20970
C1597       C  0.55076683  0.43904401  0.89477677    -0.09030
C1598       C  0.52346374  0.42972628  0.87766165     0.29850
F1599       F  0.99435727  0.44245392  0.88438478    -0.19550
H1600       H  0.00455514  0.39961815  0.84099575     0.18210
H1601       H  0.60186068  0.43228264  0.90089775     0.18220
F1602       F  0.61207579  0.38911572  0.85721766    -0.19540
C1603       C  0.56443990  0.19469825  0.86391204    -0.20970
C1604       C  0.53592168  0.19850424  0.84662711    -0.09020
C1605       C  0.50951697  0.17847599  0.85292808     0.29840
C1606       C  0.51186685  0.15485428  0.87628319    -0.20970
C1607       C  0.54047148  0.15123834  0.89356474    -0.09030
C1608       C  0.56675646  0.17127923  0.88719536     0.29850
F1609       F  0.59487191  0.16766980  0.90300279    -0.19550
H1610       H  0.58513409  0.20974968  0.85902520     0.18210
H1611       H  0.99125588  0.13972105  0.88126927     0.18220
F1612       F  0.98146911  0.18223441  0.83706665    -0.19540
C1613       C  0.88644082  0.04831611  0.62607311    -0.20970
C1614       C  0.89380072  0.03402411  0.65530060    -0.09020
C1615       C  0.92466751  0.02139549  0.65974917     0.29840
C1616       C  0.94776619  0.02418233  0.63579473    -0.20970
C1617       C  0.94035262  0.03910721  0.60694352    -0.09030
C1618       C  0.90923487  0.05063569  0.60209889     0.29850
F1619       F  0.90113844  0.06547156  0.57474083    -0.19550
H1620       H  0.86321065  0.05899002  0.62203671     0.18210
H1621       H  0.97144954  0.01444573  0.63972966     0.18220
F1622       F  0.93250459  0.00607459  0.68687245    -0.19540
C1623       C  0.66975647  0.06875148  0.65851681    -0.20970
C1624       C  0.70068398  0.05692192  0.65277614    -0.09020
C1625       C  0.70753258  0.04375984  0.62269621     0.29840
C1626       C  0.68397641  0.04234379  0.59935512    -0.20970
C1627       C  0.65281887  0.05298549  0.60555891    -0.09030
C1628       C  0.64590775  0.06644613  0.63536817     0.29850
F1629       F  0.61608358  0.07720471  0.64234124    -0.19550
H1630       H  0.66371948  0.07926994  0.68114209     0.18210
H1631       H  0.68983264  0.03159269  0.57675139     0.18220
F1632       F  0.73630370  0.03018069  0.61625874    -0.19540
C1633       C  0.70328700  0.01444733  0.87583801    -0.20970
C1634       C  0.69766881  0.02567253  0.84500591    -0.09020
C1635       C  0.66831690  0.04110488  0.83870464     0.29840
C1636       C  0.64572108  0.04548637  0.86265829    -0.20970
C1637       C  0.65186488  0.03534282  0.89362280    -0.09030
C1638       C  0.68078660  0.01936903  0.89998410     0.29850
F1639       F  0.68727346  0.00820970  0.92941689    -0.19550
H1640       H  0.72534121  0.00223689  0.88147723     0.18210
H1641       H  0.62370139  0.05785638  0.85710287     0.18220
F1642       F  0.66204720  0.05396970  0.80993257    -0.19540
C1643       C  0.90942441  0.07058573  0.90238099    -0.20970
C1644       C  0.93843725  0.05528804  0.89495006    -0.09020
C1645       C  0.94419706  0.04623811  0.86341452     0.29840
C1646       C  0.92099482  0.05127173  0.84027938    -0.20970
C1647       C  0.89154273  0.06586839  0.84761238    -0.09030
C1648       C  0.88628236  0.07611051  0.87899403     0.29850
F1649       F  0.85913646  0.09178863  0.88717129    -0.19550
H1650       H  0.90476294  0.07865532  0.92631581     0.18210
H1651       H  0.92576986  0.04234100  0.81668946     0.18220
F1652       F  0.97179113  0.03142105  0.85494711    -0.19540
C1653       C  0.67116587  0.38635954  0.98967618    -0.20970
C1654       C  0.70327588  0.39424987  0.99662712    -0.09020
C1655       C  0.71107570  0.42585863  0.50485241     0.29840
C1656       C  0.68689475  0.44889475  0.50625753    -0.20970
C1657       C  0.65453937  0.44080592  0.99963747    -0.09030
C1658       C  0.64707297  0.40915834  0.99115608     0.29850
F1659       F  0.61661063  0.40013262  0.98366235    -0.19550
H1660       H  0.66467260  0.36225866  0.98286885     0.18210
H1661       H  0.69346155  0.47302749  0.51282625     0.18220
F1662       F  0.74168811  0.43425600  0.51239105    -0.19540
C1663       C  0.64637400  0.18168069  0.51590701    -0.20970
C1664       C  0.65416555  0.15276546  0.00114302    -0.09020
C1665       C  0.68610811  0.14798575  0.99102970     0.29840
C1666       C  0.70953180  0.17187192  0.99550235    -0.20970
C1667       C  0.70165050  0.20076200  0.51060981    -0.09030
C1668       C  0.66968243  0.20512820  0.52092499     0.29890
F1669       F  0.66097736  0.23164658  0.53714753    -0.19550
H1670       H  0.62227496  0.18581552  0.52464577     0.18210
H1671       H  0.73370513  0.16777612  0.98704304     0.18220
F1672       F  0.69469114  0.12042195  0.97659633    -0.19540
C1673       C  0.94518719  0.18264704  0.00905274    -0.20970
C1674       C  0.93684860  0.15063942  0.50338346    -0.09020
C1675       C  0.90407422  0.14277208  0.49864085     0.29840
C1676       C  0.88060209  0.16653144  0.49904141    -0.20970
C1677       C  0.88918357  0.19851713  0.50413522    -0.09030
C1678       C  0.92178615  0.20623765  0.00963310     0.29850
F1679       F  0.93108851  0.23659732  0.01626136    -0.19550
H1680       H  0.96994655  0.18953900  0.01331923     0.18210
H1681       H  0.85576510  0.15995946  0.49475268     0.18220
F1682       F  0.89457169  0.11227305  0.49305939    -0.19540
C1683       C  0.92090470  0.38651487  0.97598508    -0.20970
C1684       C  0.88938322  0.39144950  0.48680973    -0.09020
C1685       C  0.88240513  0.42050325  0.50202317     0.29840
C1686       C  0.90639084  0.44398160  0.50538734    -0.20970
C1687       C  0.93785301  0.43875858  0.49431860    -0.09030
C1688       C  0.94487213  0.40952766  0.97992742     0.29850
F1689       F  0.97470324  0.40337303  0.96851053    -0.19550
H1690       H  0.92709133  0.36470309  0.96376862     0.18210
H1691       H  0.90043243  0.46616063  0.51705270     0.18220
F1692       F  0.85292975  0.42601234  0.51452743    -0.19540
C1693       C  0.86496988  0.86570822  0.48151366     0.03460
C1694       C  0.87467801  0.83375432  0.98458413    -0.12690
C1695       C  0.85481723  0.80915318  0.97378151     0.00960
C1696       C  0.82720651  0.81748940  0.95686814    -0.11210
C1697       C  0.81182979  0.84624711  0.46482016     0.03450
C1698       C  0.83218871  0.87171026  0.47424676    -0.10630
H1699       H  0.89678255  0.82799862  0.99676206     0.09050
H1700       H  0.81354103  0.79834571  0.94603575     0.06580
H1701       H  0.82240112  0.89530336  0.47688484     0.06420
C1702       C  0.86470056  0.72413834  0.00383565     0.03460
C1703       C  0.87199107  0.75295648  0.98800240    -0.12690
C1704       C  0.85244229  0.77929189  0.99238131     0.00960
C1705       C  0.82676806  0.77697377  0.01339166    -0.11210
C1706       C  0.81445486  0.74739467  0.02360430     0.03450
C1707       C  0.83445797  0.72066115  0.01940445    -0.10630
H1708       H  0.89285109  0.75493046  0.97273482     0.09050
H1709       H  0.81434462  0.79883930  0.01803549     0.06580
H1710       H  0.82707020  0.69779755  0.02883684     0.06420
C1711       C  0.72603794  0.72643805  0.01602796     0.03460
C1712       C  0.75888956  0.72034623  0.02305996    -0.12690
C1713       C  0.77923925  0.74576447  0.03280205     0.00960
C1714       C  0.76389542  0.77451091  0.04082655    -0.11210
C1715       C  0.73645114  0.78296015  0.52395542     0.03450
C1716       C  0.71661691  0.75848005  0.51292390    -0.10630
H1717       H  0.76866951  0.69680215  0.01972288     0.09050
H1718       H  0.77758483  0.79359537  0.05175448     0.06580
H1719       H  0.69479989  0.76434955  0.50030960     0.06420
C1720       C  0.72755767  0.86858644  0.49606589     0.03460
C1721       C  0.75731389  0.87186124  0.47966682    -0.12690
C1722       C  0.77669323  0.84484691  0.47432575     0.00960
C1723       C  0.76406358  0.81523016  0.48411846    -0.11210
C1724       C  0.73880921  0.81292938  0.50562884     0.03450
C1725       C  0.71986888  0.83946348  0.51104807    -0.10630
H1726       H  0.76478011  0.89481890  0.47053268     0.09050
H1727       H  0.77606055  0.79324821  0.47889311     0.06580
H1728       H  0.69910444  0.83744172  0.52644888     0.06420
C1729       C  0.86587381  0.56579022  0.32302844     0.03460
C1730       C  0.83322786  0.55850863  0.33096965    -0.12690
C1731       C  0.81323783  0.54525801  0.30762988     0.00960
C1732       C  0.82805886  0.53599618  0.27946806    -0.11210
C1733       C  0.85456205  0.55270317  0.26792265     0.03450
C1734       C  0.87460671  0.56725635  0.29034534    -0.10630
H1735       H  0.82391944  0.56129530  0.35468376     0.09050
H1736       H  0.81535040  0.52075500  0.26370413     0.06580
H1737       H  0.89723807  0.57775101  0.28290080     0.06420
C1738       C  0.72371677  0.52581938  0.32079781     0.03460
C1739       C  0.75621782  0.53246141  0.32968943    -0.12690
C1740       C  0.77711167  0.54552288  0.30703191     0.00960
C1741       C  0.76331606  0.55485322  0.27846545    -0.11210
C1742       C  0.73702553  0.53838302  0.26612096     0.03450
C1743       C  0.71603264  0.52419828  0.28792719    -0.10630
H1744       H  0.76464246  0.52916387  0.35365952     0.09050
H1745       H  0.77666957  0.56993363  0.26311995     0.06580
H1746       H  0.69364798  0.51369301  0.27983562     0.06420
C1747       C  0.72448471  0.55431837  0.17881001     0.03460
C1748       C  0.71480475  0.54680892  0.21030149    -0.12690
C1749       C  0.73726678  0.53343384  0.23099417     0.00960
C1750       C  0.76685504  0.52457837  0.21795454    -0.11210
C1751       C  0.77948810  0.54172038  0.19244437     0.03450
C1752       C  0.75778995  0.55623134  0.17201654    -0.10630
H1753       H  0.69047482  0.55051506  0.21845021     0.09050
H1754       H  0.78214621  0.50920387  0.23115336     0.06580
H1755       H  0.76650532  0.56784128  0.15075807     0.06420
C1756       C  0.86972772  0.53606357  0.18110589     0.03460
C1757       C  0.87853133  0.54393034  0.21274650    -0.12690
C1758       C  0.85546526  0.55752219  0.23279280     0.00960
C1759       C  0.82631566  0.56644579  0.21893531    -0.11210
C1760       C  0.81442139  0.54938679  0.19298014     0.03450
C1761       C  0.83665435  0.53459496  0.17327733    -0.10630
H1762       H  0.90266607  0.54058928  0.22146549     0.09050
H1763       H  0.81073167  0.58203146  0.23165570     0.06580
H1764       H  0.82859635  0.52339374  0.15152543     0.06420
C1765       C  0.53539455  0.72305969  0.32170121     0.03460
C1766       C  0.53711902  0.75572631  0.33049886    -0.12690
C1767       C  0.54962147  0.77782454  0.30884325     0.00960
C1768       C  0.56314407  0.76537393  0.28116519    -0.11210
C1769       C  0.55164610  0.73681154  0.26797584     0.03450
C1770       C  0.53888814  0.71431800  0.28927981    -0.10630
H1771       H  0.52984397  0.76340684  0.35390875     0.09050
H1772       H  0.57834616  0.78021518  0.26725235     0.06580
H1773       H  0.53301986  0.69045673  0.28128330     0.06420
C1774       C  0.55651946  0.86808790  0.32203026     0.03460
C1775       C  0.55185020  0.87683803  0.28989864    -0.12690
C1776       C  0.53927484  0.85420042  0.26877970     0.00960
C1777       C  0.52868201  0.82538216  0.28191242    -0.11210
C1778       C  0.54325547  0.81307027  0.30903636     0.03450
C1779       C  0.55598989  0.83534013  0.33058404    -0.10630
H1780       H  0.55698545  0.90085005  0.28194427     0.09050
H1781       H  0.51299131  0.81050564  0.26854182     0.06580
H1782       H  0.56395995  0.82774035  0.35374164     0.06420
C1783       C  0.56139196  0.72475576  0.17781416     0.03460
C1784       C  0.55974623  0.71543452  0.21032371    -0.12690
C1785       C  0.54702318  0.73697487  0.23251111     0.00960
C1786       C  0.53370165  0.76469508  0.22021255    -0.11210
C1787       C  0.54566448  0.77845770  0.19251851     0.03450
C1788       C  0.55830554  0.75757816  0.16994452    -0.10630
H1789       H  0.56648069  0.69177165  0.21776944     0.09050
H1790       H  0.51836119  0.77830476  0.23481187     0.06580
H1791       H  0.56428268  0.76614795  0.14647878     0.06420
C1792       C  0.53012190  0.86738263  0.17887502     0.03460
C1793       C  0.53017526  0.87543068  0.21179610    -0.12690
C1794       C  0.54410652  0.85441697  0.23348857     0.00960
C1795       C  0.55938038  0.82789161  0.22082524    -0.11210
C1796       C  0.54862034  0.81419418  0.19260976     0.03450
C1797       C  0.53562792  0.83495956  0.17014794    -0.10630
H1798       H  0.52078939  0.89795342  0.22002119     0.09050
H1799       H  0.57510152  0.81477280  0.23549391     0.06580
H1800       H  0.53154105  0.82621335  0.14642668     0.06420
O1801       O  0.95353587  0.99318259  0.99839798    -0.79800
O1802       O  0.63826381  0.99488786  0.50083445    -0.81350
O1803       O  0.54893731  0.95432538  0.44852221    -0.78370
O1804       O  0.54217574  0.95470846  0.05248462    -0.76760
O1805       O  0.54445788  0.99377679  0.09029321    -0.78550
O1806       O  0.54583634  0.99277225  0.41015274    -0.79480
O1807       O  0.59942490  0.95608983  0.50108570    -0.80810
O1808       O  0.99256974  0.95517502  0.99753497    -0.81090
Eu1809     Eu  0.54603952  0.98084979  0.00031242     2.39200
O1810       O  0.57919608  0.51332751  0.03247530    -0.88600
O1811       O  0.51279773  0.51254422  0.46799093    -0.92210
C1812       C  0.96288194  0.96398258  0.99713222     1.02480
C1813       C  0.62911706  0.96546542  0.50078930     1.02300
C1814       C  0.54829833  0.96360181  0.41941736     1.02240
C1815       C  0.54195032  0.96433282  0.08158711     1.00100
H1816       H  0.59120878  0.50031355  0.45529790     0.29850
O1817       O  0.57788014  0.51376258  0.46829001    -1.00990
H1818       H  0.50003612  0.50000908  0.04514877     0.29890
O1819       O  0.51358369  0.51341503  0.03214316    -1.03530
O1820       O  0.63836759  0.59830807  0.49794448    -0.80760
O1821       O  0.95355616  0.59661779  0.00255151    -0.80300
O1822       O  0.59795198  0.54296374  0.40968954    -0.78730
O1823       O  0.59846889  0.54814331  0.09019280    -0.82070
O1824       O  0.99459681  0.54397272  0.09104966    -0.79930
O1825       O  0.99254778  0.54772179  0.41052975    -0.78580
O1826       O  0.54409468  0.63644488  0.44737651    -0.80100
O1827       O  0.54779998  0.63710317  0.05192389    -0.82020
O1828       O  0.54337248  0.59742595  0.40927800    -0.78760
O1829       O  0.54940603  0.59852481  0.09019289    -0.81440
O1830       O  0.63711427  0.54176092  0.44760575    -0.77170
O1831       O  0.95377800  0.54952863  0.44886473    -0.77210
O1832       O  0.95552839  0.54279462  0.05301820    -0.76850
O1833       O  0.63716014  0.54895268  0.05173260    -0.80350
O1834       O  0.59937992  0.63637504  0.49942291    -0.79770
O1835       O  0.99213085  0.63565475  0.00175295    -0.78100
Eu1836     Eu  0.61104138  0.54632331  0.49958713     2.39770
Eu1837     Eu  0.98073709  0.54524040  0.00048067     2.39570
Eu1838     Eu  0.54537973  0.54543601  0.43597223     2.38400
Eu1839     Eu  0.54637109  0.54606922  0.06398913     2.39880
Eu1840     Eu  0.54579136  0.61072192  0.49980722     2.39790
O1841       O  0.51319976  0.57836723  0.03256675    -0.92510
O1842       O  0.57858599  0.57866271  0.46722481    -0.91410
C1843       C  0.62909599  0.62753188  0.49891233     1.02660
C1844       C  0.96246459  0.62608784  0.00254468     1.01370
C1845       C  0.62751645  0.54060455  0.41858180     1.00760
C1846       C  0.62792258  0.54974950  0.08093743     1.02780
C1847       C  0.96505441  0.54231128  0.08209093     1.01690
C1848       C  0.96307666  0.55019508  0.41968571     1.00540
C1849       C  0.54283147  0.62679871  0.41832241     1.00600
C1850       C  0.54974788  0.62785451  0.08101596     1.03220
H1851       H  0.49983109  0.59102622  0.45562154     0.30590
O1852       O  0.51330963  0.57764241  0.46844362    -1.04680
H1853       H  0.59203983  0.59197932  0.04425796     0.32640
O1854       O  0.57843710  0.57849515  0.03136897    -1.07240
C1855       C  0.54437986  0.92247197  0.16111572    -0.20970
C1856       C  0.52908174  0.89313484  0.15447990    -0.09020
C1857       C  0.51689955  0.88811098  0.12368530     0.29840
C1858       C  0.52144130  0.91118638  0.10011840    -0.20970
C1859       C  0.53752831  0.94003187  0.10675170    -0.09030
C1860       C  0.54832517  0.94569716  0.13779391     0.29850
F1861       F  0.56390710  0.97318254  0.14545894    -0.19550
H1862       H  0.55465490  0.92713871  0.18421287     0.18210
H1863       H  0.51199678  0.90658623  0.07664582     0.18220
F1864       F  0.50018389  0.86126476  0.11624450    -0.19540
C1865       C  0.57751454  0.65051763  0.12856681    -0.20970
C1866       C  0.55326884  0.65272705  0.10553800    -0.09020
C1867       C  0.53300012  0.67921456  0.10572000     0.29840
C1868       C  0.53671267  0.70282640  0.12879107    -0.20970
C1869       C  0.56072761  0.70060765  0.15211826    -0.09030
C1870       C  0.58130646  0.67424881  0.15172308     0.29850
F1871       F  0.60531113  0.67172396  0.17326227    -0.19550
H1872       H  0.59383851  0.63064179  0.12825994     0.18210
H1873       H  0.02007975  0.72251063  0.12901301     0.18220
F1874       F  0.00883830  0.68163042  0.08433270    -0.19540
C1875       C  0.52600028  0.90684821  0.35380224    -0.20970
C1876       C  0.55570102  0.89284608  0.34676820    -0.09020
C1877       C  0.58309343  0.90200925  0.36395614     0.29840
C1878       C  0.58059263  0.92505505  0.38792819    -0.20970
C1879       C  0.55079727  0.93904092  0.39478720    -0.09030
C1880       C  0.52350345  0.92976590  0.37763726     0.29850
F1881       F  0.99439049  0.94253258  0.38432782    -0.19550
H1882       H  0.00458496  0.89969749  0.34093901     0.18210
H1883       H  0.60187485  0.93221179  0.40096407     0.18220
F1884       F  0.61208445  0.88904996  0.35727514    -0.19540
C1885       C  0.56444330  0.69469453  0.36391153    -0.20970
C1886       C  0.53592286  0.69850591  0.34663128    -0.09020
C1887       C  0.50951551  0.67848252  0.35293827     0.29840
C1888       C  0.51186494  0.65486135  0.37629467    -0.20970
C1889       C  0.54047178  0.65124043  0.39357185    -0.09030
C1890       C  0.56675947  0.67127598  0.38719591     0.29850
F1891       F  0.59487721  0.66766189  0.40299817    -0.19550
H1892       H  0.58513953  0.70974176  0.35902050     0.18210
H1893       H  0.99124696  0.63975315  0.38130977     0.18220
F1894       F  0.98145906  0.68226764  0.33710812    -0.19540
C1895       C  0.88649275  0.54834050  0.12606357    -0.20970
C1896       C  0.89383089  0.53404337  0.15529344    -0.09020
C1897       C  0.92468927  0.52139605  0.15975271     0.29840
C1898       C  0.94780157  0.52416947  0.13580776    -0.20970
C1899       C  0.94040870  0.53909665  0.10695362    -0.09030
C1900       C  0.90929949  0.55064599  0.10209835     0.29850
F1901       F  0.90122525  0.56549085  0.07473835    -0.19550
H1902       H  0.86327051  0.55902804  0.12201879     0.18210
H1903       H  0.97147788  0.51441986  0.13975130     0.18220
F1904       F  0.93250383  0.50606647  0.18687716    -0.19540
C1905       C  0.66978136  0.56876435  0.15851466    -0.20970
C1906       C  0.70070778  0.55693295  0.15277968    -0.09020
C1907       C  0.70756467  0.54377030  0.12270181     0.29840
C1908       C  0.68401821  0.54236352  0.09935206    -0.20970
C1909       C  0.65286207  0.55301071  0.10554816    -0.09030
C1910       C  0.64594135  0.56646557  0.13535889     0.29850
F1911       F  0.61611515  0.57722203  0.14232810    -0.19550
H1912       H  0.66373860  0.57927883  0.18114040     0.18210
H1913       H  0.68987904  0.53161265  0.07674943     0.18220
F1914       F  0.73633367  0.53018151  0.11627507    -0.19540
C1915       C  0.70329357  0.51444427  0.37583707    -0.20970
C1916       C  0.69767644  0.52567020  0.34500491    -0.09020
C1917       C  0.66832861  0.54111101  0.33870551     0.29840
C1918       C  0.64573627  0.54550006  0.36266103    -0.20970
C1919       C  0.65187976  0.53535561  0.39362537    -0.09030
C1920       C  0.68079689  0.51937372  0.39998492     0.29850
F1921       F  0.68728201  0.50821277  0.42941748    -0.19550
H1922       H  0.72534431  0.50222724  0.38147502     0.18210
H1923       H  0.62371933  0.55787557  0.35710709     0.18220
F1924       F  0.66205994  0.55397627  0.30993345    -0.19540
C1925       C  0.90944258  0.57054536  0.40238172    -0.20970
C1926       C  0.93845883  0.55525590  0.39494680    -0.09020
C1927       C  0.94421794  0.54621022  0.36341002     0.29840
C1928       C  0.92101223  0.55124113  0.34027714    -0.20970
C1929       C  0.89155780  0.56583180  0.34761387    -0.09030
C1930       C  0.88629750  0.57606810  0.37899739     0.29850
F1931       F  0.85914931  0.59173997  0.38717919    -0.19550
H1932       H  0.90478098  0.57861108  0.42631783     0.18210
H1933       H  0.92578725  0.54231448  0.31668569     0.18220
F1934       F  0.97181504  0.53140058  0.35493929    -0.19540
C1935       C  0.67117270  0.88635337  0.48984135    -0.20970
C1936       C  0.70328581  0.89425859  0.49676484    -0.09020
C1937       C  0.71103969  0.92583109  0.00476325     0.29840
C1938       C  0.68685892  0.94886449  0.00620161    -0.20970
C1939       C  0.65453592  0.94081451  0.49971872    -0.09030
C1940       C  0.64707501  0.90915137  0.49129116     0.29850
F1941       F  0.61661263  0.90010852  0.48381845    -0.19550
H1942       H  0.66468078  0.86224119  0.48307315     0.18210
H1943       H  0.69342428  0.97298663  0.01281012     0.18220
F1944       F  0.74164957  0.93421638  0.01232406    -0.19540
C1945       C  0.64636656  0.68169282  0.01570946    -0.20970
C1946       C  0.65415928  0.65279371  0.50125361    -0.09020
C1947       C  0.68609178  0.64804162  0.49109712     0.29840
C1948       C  0.70951822  0.67192040  0.49559832    -0.20970
C1949       C  0.70165033  0.70074709  0.01044310    -0.09030
C1950       C  0.66967032  0.70514295  0.02070831     0.29890
F1951       F  0.66094679  0.73169245  0.03687028    -0.19550
H1952       H  0.62225856  0.68585159  0.02441230     0.18210
H1953       H  0.73368108  0.66784728  0.48709855     0.18220
F1954       F  0.69466055  0.62051342  0.47658810    -0.19540
C1955       C  0.94518307  0.68260564  0.50896727    -0.20970
C1956       C  0.93687336  0.65065721  0.00341455    -0.09020
C1957       C  0.90410354  0.64279527  0.99863149     0.29840
C1958       C  0.88062754  0.66655366  0.99904151    -0.20970
C1959       C  0.88919963  0.69853502  0.00418362    -0.09030
C1960       C  0.92178323  0.70619595  0.50953360     0.29850
F1961       F  0.93109446  0.73656556  0.51610402    -0.19550
H1962       H  0.96994674  0.68950723  0.51319445     0.18210
H1963       H  0.85579568  0.65998541  0.99471896     0.18220
F1964       F  0.89461103  0.61230329  0.99299570    -0.19540
C1965       C  0.92089638  0.88648421  0.47583946    -0.20970
C1966       C  0.88935013  0.89149180  0.98690829    -0.09020
C1967       C  0.88234732  0.92057598  0.00205287     0.29840
C1968       C  0.90632937  0.94405931  0.00540770    -0.20970
C1969       C  0.93780837  0.93881010  0.99439741    -0.09030
C1970       C  0.94485506  0.90951165  0.47976604     0.29850
F1971       F  0.97467377  0.90339261  0.46829715    -0.19550
H1972       H  0.92707416  0.86468801  0.46359060     0.18210
H1973       H  0.90035338  0.96626377  0.01701584     0.18220
F1974       F  0.85285027  0.92611410  0.01449415    -0.19540
C1975       C  0.86496551  0.86575421  0.98159945     0.03460
C1976       C  0.87468309  0.83370556  0.48446501    -0.12690
C1977       C  0.85478364  0.80911153  0.47371270     0.00960
C1978       C  0.82713702  0.81745850  0.45686022    -0.11210
C1979       C  0.81186964  0.84627004  0.96479805     0.03450
C1980       C  0.83219772  0.87174395  0.97426451    -0.10630
H1981       H  0.89681434  0.82794235  0.49659220     0.09050
H1982       H  0.81343810  0.79831915  0.44606095     0.06580
H1983       H  0.82239636  0.89533401  0.97687731     0.06420
C1984       C  0.86468926  0.72410590  0.50379061     0.03460
C1985       C  0.87196180  0.75291271  0.48792863    -0.12690
C1986       C  0.85243045  0.77925794  0.49232892     0.00960
C1987       C  0.82679389  0.77695858  0.51338715    -0.11210
C1988       C  0.81448550  0.74738814  0.52362939     0.03450
C1989       C  0.83447143  0.72064594  0.51940850    -0.10630
H1990       H  0.89279772  0.75487192  0.47262736     0.09050
H1991       H  0.81438939  0.79883073  0.51804993     0.06580
H1992       H  0.82709261  0.69779016  0.52886610     0.06420
C1993       C  0.72604502  0.72646318  0.51620409     0.03460
C1994       C  0.75890945  0.72036411  0.52317250    -0.12690
C1995       C  0.77928490  0.74577332  0.53288544     0.00960
C1996       C  0.76396773  0.77452476  0.54094223    -0.11210
C1997       C  0.73641398  0.78293502  0.02378035     0.03450
C1998       C  0.71661472  0.75845018  0.01270589    -0.10630
H1999       H  0.76867946  0.69682042  0.51980301     0.09050
H2000       H  0.77768889  0.79360427  0.55184050     0.06580
H2001       H  0.69482421  0.76431147  0.00004296     0.06420
C2002       C  0.72754648  0.86856312  0.99592095     0.03460
C2003       C  0.75732211  0.87185363  0.97956203    -0.12690
C2004       C  0.77671656  0.84484875  0.97423689     0.00960
C2005       C  0.76408033  0.81522268  0.98399579    -0.11210
C2006       C  0.73879173  0.81290587  0.00546508     0.03450
C2007       C  0.71983879  0.83943095  0.01087228    -0.10630
H2008       H  0.76479710  0.89481889  0.97045367     0.09050
H2009       H  0.77609505  0.79324668  0.97878497     0.06580
H2010       H  0.69905535  0.83739725  0.02624703     0.06420
C2011       C  0.86586802  0.56581093  0.82303542     0.03460
C2012       C  0.83322182  0.55853212  0.83097769    -0.12690
C2013       C  0.81323247  0.54527467  0.80764120     0.00960
C2014       C  0.82805472  0.53600488  0.77948200    -0.11210
C2015       C  0.85456082  0.55270617  0.76793330     0.03450
C2016       C  0.87460257  0.56726773  0.79035257    -0.10630
H2017       H  0.82391298  0.56132564  0.85469088     0.09050
H2018       H  0.81534608  0.52076028  0.76372152     0.06580
H2019       H  0.89723445  0.57776009  0.78290632     0.06420
C2020       C  0.72371006  0.52583444  0.82080731     0.03460
C2021       C  0.75620997  0.53248154  0.82970104    -0.12690
C2022       C  0.77710586  0.54553982  0.80704245     0.00960
C2023       C  0.76331231  0.55486408  0.77847312    -0.11210
C2024       C  0.73702437  0.53838930  0.76612967     0.03450
C2025       C  0.71603021  0.52420707  0.78793617    -0.10630
H2026       H  0.76463257  0.52918781  0.85367237     0.09050
H2027       H  0.77666662  0.56994207  0.76312548     0.06580
H2028       H  0.69364831  0.51369678  0.77984356     0.06420
C2029       C  0.72449396  0.55431424  0.67881770     0.03460
C2030       C  0.71481060  0.54680887  0.71030876    -0.12690
C2031       C  0.73726879  0.53343290  0.73100434     0.00960
C2032       C  0.76685709  0.52457167  0.71796835    -0.11210
C2033       C  0.77949359  0.54170689  0.69245494     0.03450
C2034       C  0.75779936  0.55622059  0.67202573    -0.10630
H2035       H  0.69048079  0.55051950  0.71845565     0.09050
H2036       H  0.78214547  0.50919736  0.73117078     0.06580
H2037       H  0.76651797  0.56782800  0.65076714     0.06420
C2038       C  0.86973397  0.53604892  0.68111833     0.03460
C2039       C  0.87853622  0.54392160  0.71275854    -0.12690
C2040       C  0.85546780  0.55751569  0.73280201     0.00960
C2041       C  0.82631950  0.56643647  0.71894145    -0.11210
C2042       C  0.81442679  0.54937084  0.69299067     0.03450
C2043       C  0.83666037  0.53457583  0.67329092    -0.10630
H2044       H  0.90267074  0.54058316  0.72147907     0.09050
H2045       H  0.81073384  0.58202297  0.73165880     0.06580
H2046       H  0.82860246  0.52336914  0.65154176     0.06420
C2047       C  0.53538565  0.72305806  0.82169906     0.03460
C2048       C  0.53710875  0.75572434  0.83049621    -0.12690
C2049       C  0.54961598  0.77782072  0.80884265     0.00960
C2050       C  0.56314557  0.76536894  0.78116855    -0.11210
C2051       C  0.55164959  0.73680640  0.76797772     0.03450
C2052       C  0.53888520  0.71431477  0.78927913    -0.10630
H2053       H  0.52982932  0.76340587  0.85390447     0.09050
H2054       H  0.57835120  0.78020924  0.76725879     0.06580
H2055       H  0.53301791  0.69045340  0.78128226     0.06420
C2056       C  0.55650990  0.86808056  0.82203400     0.03460
C2057       C  0.55185514  0.87683219  0.78990112    -0.12690
C2058       C  0.53928625  0.85419515  0.76877777     0.00960
C2059       C  0.52868549  0.82537845  0.78190659    -0.11210
C2060       C  0.54324951  0.81306526  0.80903430     0.03450
C2061       C  0.55597494  0.83533347  0.83058754    -0.10630
H2062       H  0.55699495  0.90084411  0.78194917     0.09050
H2063       H  0.51299549  0.81050494  0.76853229     0.06580
H2064       H  0.56393597  0.82773304  0.85374799     0.06420
C2065       C  0.56140038  0.72474389  0.67781769     0.03460
C2066       C  0.55975227  0.71542476  0.71032769    -0.12690
C2067       C  0.54703215  0.73696877  0.73251300     0.00960
C2068       C  0.53371616  0.76468984  0.72021231    -0.11210
C2069       C  0.54568565  0.77844957  0.69252066     0.03450
C2070       C  0.55832151  0.75756674  0.66994658    -0.10630
H2071       H  0.56648153  0.69176089  0.71777493     0.09050
H2072       H  0.51837534  0.77830162  0.73480867     0.06580
H2073       H  0.56430015  0.76613440  0.64648043     0.06420
C2074       C  0.53014479  0.86737024  0.67887521     0.03460
C2075       C  0.53019709  0.87542169  0.71179466    -0.12690
C2076       C  0.54412843  0.85441086  0.73348882     0.00960
C2077       C  0.55940366  0.82788408  0.72082853    -0.11210
C2078       C  0.54864632  0.81418498  0.69261217     0.03450
C2079       C  0.53565339  0.83494774  0.67014987    -0.10630
H2080       H  0.52080996  0.89794494  0.72001695     0.09050
H2081       H  0.57512400  0.81476663  0.73549920     0.06580
H2082       H  0.53156838  0.82620011  0.64642880     0.06420
O2083       O  0.95352223  0.99314835  0.49830330    -0.79800
O2084       O  0.63829726  0.99487954  0.00079693    -0.81350
O2085       O  0.54896435  0.95432855  0.94848671    -0.78370
O2086       O  0.54201642  0.95475489  0.55245986    -0.76760
O2087       O  0.54433350  0.99378439  0.59026156    -0.78550
O2088       O  0.54582072  0.99277963  0.91013792    -0.79480
O2089       O  0.59948215  0.95607410  0.00102733    -0.80810
O2090       O  0.99255893  0.95514214  0.49746303    -0.81090
Eu2091     Eu  0.54587277  0.98090535  0.50038738     2.39200
O2092       O  0.57922456  0.51332774  0.53246874    -0.88600
O2093       O  0.51275839  0.51256101  0.96799723    -0.92210
C2094       C  0.96287210  0.96394854  0.49703158     1.02480
C2095       C  0.62915588  0.96545693  0.00073543     1.02300
C2096       C  0.54828954  0.96360917  0.91939449     1.02240
C2097       C  0.54181877  0.96435514  0.58155866     1.00100
H2098       H  0.59116517  0.50030546  0.95529598     0.29850
O2099       O  0.57784243  0.51375946  0.96828884    -1.00990
H2100       H  0.50006512  0.49997202  0.54514385     0.29890
O2101       O  0.51361120  0.51338364  0.53214237    -1.03530
O2102       O  0.63835798  0.59827630  0.99789635    -0.80760
O2103       O  0.95354298  0.59657994  0.50254143    -0.80300
O2104       O  0.59792240  0.54295287  0.90968561    -0.78730
O2105       O  0.59848549  0.54813406  0.59019513    -0.82070
O2106       O  0.99459349  0.54394700  0.59104698    -0.79930
O2107       O  0.99253784  0.54772973  0.91053407    -0.78580
O2108       O  0.54408499  0.63644572  0.94736620    -0.80100
O2109       O  0.54778779  0.63708797  0.55193593    -0.82020
O2110       O  0.54335403  0.59742326  0.90927121    -0.78760
O2111       O  0.54940943  0.59850523  0.59019963    -0.81440
O2112       O  0.63708317  0.54173917  0.94760258    -0.77170
O2113       O  0.95377226  0.54955753  0.94887176    -0.77210
O2114       O  0.95552586  0.54275362  0.55301502    -0.76850
O2115       O  0.63718019  0.54896038  0.55173808    -0.80350
O2116       O  0.59937902  0.63635150  0.99935944    -0.79770
O2117       O  0.99211204  0.63562306  0.50174781    -0.78100
Eu2118     Eu  0.61101323  0.54631006  0.99958350     2.39770
Eu2119     Eu  0.98073779  0.54520885  0.50047651     2.39570
Eu2120     Eu  0.54534894  0.54543669  0.93597027     2.38400
Eu2121     Eu  0.54638836  0.54605111  0.56398915     2.39880
Eu2122     Eu  0.54578135  0.61073053  0.99979864     2.39790
O2123       O  0.51321290  0.57834211  0.53256560    -0.92510
O2124       O  0.57856225  0.57865344  0.96722218    -0.91410
C2125       C  0.62909220  0.62750146  0.99883999     1.02660
C2126       C  0.96244742  0.62605139  0.50253352     1.01370
C2127       C  0.62748659  0.54058709  0.91857831     1.00760
C2128       C  0.62793959  0.54974875  0.58094187     1.02780
C2129       C  0.96505152  0.54227627  0.58208850     1.01690
C2130       C  0.96306858  0.55021434  0.91969195     1.00540
C2131       C  0.54281938  0.62679670  0.91831340     1.00600
C2132       C  0.54974076  0.62783637  0.58102659     1.03220
H2133       H  0.49981342  0.59104858  0.95561497     0.30590
O2134       O  0.51328914  0.57766146  0.96843654    -1.04680
H2135       H  0.59204489  0.59197322  0.54427030     0.32640
O2136       O  0.57844887  0.57848821  0.53137547    -1.07240
C2137       C  0.54440867  0.92245495  0.66109772    -0.20970
C2138       C  0.52910195  0.89311944  0.65447705    -0.09020
C2139       C  0.51690854  0.88809241  0.62368846     0.29840
C2140       C  0.52143320  0.91116871  0.60011347    -0.20970
C2141       C  0.53749766  0.94003141  0.60672638    -0.09030
C2142       C  0.54833842  0.94568340  0.63776544     0.29850
F2143       F  0.56392855  0.97316321  0.64543018    -0.19550
H2144       H  0.55469584  0.92711884  0.68419215     0.18210
H2145       H  0.51196954  0.90656096  0.57665115     0.18220
F2146       F  0.50018972  0.86124246  0.61625973    -0.19540
C2147       C  0.57750926  0.65049989  0.62857599    -0.20970
C2148       C  0.55326016  0.65270776  0.60555054    -0.09020
C2149       C  0.53299294  0.67919664  0.60573287     0.29840
C2150       C  0.53671092  0.70281130  0.62880064    -0.20970
C2151       C  0.56072966  0.70059371  0.65212410    -0.09030
C2152       C  0.58130619  0.67423333  0.65172908     0.29850
F2153       F  0.60531400  0.67170963  0.67326502    -0.19550
H2154       H  0.59383318  0.63062427  0.62826787     0.18210
H2155       H  0.02007922  0.72250525  0.62902253     0.18220
F2156       F  0.00882190  0.68162395  0.58434624    -0.19540
C2157       C  0.52596623  0.90677758  0.85385890    -0.20970
C2158       C  0.55568350  0.89283581  0.84677203    -0.09020
C2159       C  0.58309237  0.90206466  0.86389899     0.29840
C2160       C  0.58059289  0.92511848  0.88786207    -0.20970
C2161       C  0.55078156  0.93904583  0.89477286    -0.09030
C2162       C  0.52347006  0.92970305  0.87768689     0.29850
F2163       F  0.99434228  0.94245432  0.88438250    -0.19550
H2164       H  0.00454571  0.89961678  0.84099635     0.18210
H2165       H  0.60188761  0.93232526  0.90085197     0.18220
F2166       F  0.61209600  0.88915721  0.85717067    -0.19540
C2167       C  0.56442081  0.69471744  0.86393297    -0.20970
C2168       C  0.53591185  0.69850625  0.84662924    -0.09020
C2169       C  0.50951706  0.67845818  0.85290836     0.29840
C2170       C  0.51186719  0.65483466  0.87626141    -0.20970
C2171       C  0.54046209  0.65123647  0.89356243    -0.09030
C2172       C  0.56673759  0.67129656  0.88721412     0.29850
F2173       F  0.59484527  0.66770312  0.90303885    -0.19550
H2174       H  0.58510839  0.70978301  0.85906172     0.18210
H2175       H  0.99126623  0.63971775  0.88127646     0.18220
F2176       F  0.98147421  0.68223212  0.83707603    -0.19540
C2177       C  0.88649280  0.54830779  0.62606864    -0.20970
C2178       C  0.89383647  0.53402420  0.65530411    -0.09020
C2179       C  0.92469747  0.52138293  0.65976394     0.29840
C2180       C  0.94780580  0.52414845  0.63581380    -0.20970
C2181       C  0.94040702  0.53906188  0.60695374    -0.09030
C2182       C  0.90929557  0.55060522  0.60209856     0.29850
F2183       F  0.90121550  0.56543807  0.57473382    -0.19550
H2184       H  0.86326889  0.55899110  0.62202229     0.18210
H2185       H  0.97148431  0.51440455  0.63975865     0.18220
F2186       F  0.93251874  0.50606677  0.68689399    -0.19540
C2187       C  0.66979408  0.56876497  0.65851918    -0.20970
C2188       C  0.70071973  0.55693083  0.65278609    -0.09020
C2189       C  0.70757755  0.54376624  0.62270930     0.29840
C2190       C  0.68403253  0.54236043  0.59935871    -0.20970
C2191       C  0.65287691  0.55300946  0.60555347    -0.09030
C2192       C  0.64595505  0.56646566  0.63536292     0.29850
F2193       F  0.61612862  0.57722222  0.64233039    -0.19550
H2194       H  0.66375082  0.57928115  0.68114398     0.18210
H2195       H  0.68989365  0.53160819  0.57675677     0.18220
F2196       F  0.73634543  0.53017414  0.61628456    -0.19540
C2197       C  0.70328110  0.51445255  0.87584419    -0.20970
C2198       C  0.69766577  0.52567727  0.84501135    -0.09020
C2199       C  0.66831155  0.54110461  0.83870670     0.29840
C2200       C  0.64571151  0.54548227  0.86265776    -0.20970
C2201       C  0.65185299  0.53533994  0.89362321    -0.09030
C2202       C  0.68077643  0.51937029  0.89998752     0.29850
F2203       F  0.68726131  0.50821154  0.92942098    -0.19550
H2204       H  0.72533626  0.50224521  0.88148630     0.18210
H2205       H  0.62369057  0.55784899  0.85709979     0.18220
F2206       F  0.66204310  0.55396832  0.80993392    -0.19540
C2207       C  0.90943793  0.57057258  0.90238707    -0.20970
C2208       C  0.93845109  0.55527662  0.89495368    -0.09020
C2209       C  0.94420821  0.54622535  0.86341823     0.29840
C2210       C  0.92100343  0.55125691  0.84028533    -0.20970
C2211       C  0.89155180  0.56585367  0.84762040    -0.09030
C2212       C  0.88629345  0.57609572  0.87900231     0.29850
F2213       F  0.85914769  0.59177282  0.88718195    -0.19550
H2214       H  0.90477824  0.57864253  0.92632212     0.18210
H2215       H  0.92577675  0.54232540  0.81669536     0.18220
F2216       F  0.97180228  0.53140947  0.85494877    -0.19540
C2217       C  0.67117441  0.88635183  0.98968205    -0.20970
C2218       C  0.70328553  0.89423942  0.99663029    -0.09020
C2219       C  0.71103141  0.92586553  0.50484974     0.29840
C2220       C  0.68684139  0.94889414  0.50626452    -0.20970
C2221       C  0.65455686  0.94080274  0.99963609    -0.09030
C2222       C  0.64708467  0.90915397  0.99115882     0.29850
F2223       F  0.61662101  0.90012994  0.98366735    -0.19550
H2224       H  0.66467793  0.86225064  0.98287886     0.18210
H2225       H  0.69340262  0.97302777  0.51283541     0.18220
F2226       F  0.74164243  0.93427287  0.51238327    -0.19540
C2227       C  0.64638002  0.68169056  0.51590074    -0.20970
C2228       C  0.65415776  0.65276093  0.00114039    -0.09020
C2229       C  0.68609970  0.64797882  0.99102651     0.29840
C2230       C  0.70952586  0.67186223  0.99550111    -0.20970
C2231       C  0.70165538  0.70077205  0.51061161    -0.09030
C2232       C  0.66968696  0.70513652  0.52092592     0.29890
F2233       F  0.66098029  0.73165116  0.53715375    -0.19550
H2234       H  0.62228019  0.68582232  0.52463906     0.18210
H2235       H  0.73369876  0.66776468  0.98704146     0.18220
F2236       F  0.69467980  0.62041523  0.97659099    -0.19540
C2237       C  0.94519354  0.68263511  0.00904398    -0.20970
C2238       C  0.93685576  0.65062003  0.50339154    -0.09020
C2239       C  0.90408157  0.64275320  0.49864566     0.29840
C2240       C  0.88060782  0.66651422  0.49904229    -0.20970
C2241       C  0.88918735  0.69850228  0.50413305    -0.09030
C2242       C  0.92179025  0.70622323  0.00962486     0.29850
F2243       F  0.93109205  0.73658477  0.01624507    -0.19550
H2244       H  0.96995332  0.68953076  0.01330243     0.18210
H2245       H  0.85577106  0.65994163  0.49475328     0.18220
F2246       F  0.89458164  0.61225338  0.49306408    -0.19540
C2247       C  0.92090548  0.88650479  0.97600587    -0.20970
C2248       C  0.88935941  0.89144249  0.48680829    -0.09020
C2249       C  0.88237274  0.92049883  0.50201209     0.29840
C2250       C  0.90634639  0.94398990  0.50535289    -0.20970
C2251       C  0.93780505  0.93877378  0.49427537    -0.09030
C2252       C  0.94486785  0.90952349  0.97994378     0.29850
F2253       F  0.97470110  0.90337081  0.96853127    -0.19550
H2254       H  0.92709745  0.86469122  0.96379531     0.18210
H2255       H  0.90038333  0.96617133  0.51701130     0.18220
F2256       F  0.85290149  0.92599854  0.51453002    -0.19540
loop_ 
_geom_bond_atom_site_label_1 
_geom_bond_atom_site_label_2 
_geom_bond_distance 
_geom_bond_site_symmetry_2 
_ccdc_geom_bond_type 
C1            C6   1.423       .  A
C1          C284   1.412       .  A
C1          C556   1.493       .  S
C2            C3   1.394       .  A
C2          C283   1.412       .  A
C2            H7   1.084       .  S
C3            C4   1.401       .  A
C3           C12   1.484       .  S
C4          C287   1.411       .  A
C4            H8   1.082       .  S
C5            C6   1.415       .  A
C5          C286   1.411       .  A
C5           C30   1.516       .  S
C6            H9   1.080       .  S
C10          C11   1.414   1_554  A
C10          C15   1.426       .  A
C10         C267   1.488       .  S
C11          C12   1.390       .  A
C11          H16   1.083       .  S
C12          C13   1.391   1_556  A
C13          C14   1.408       .  A
C13          H17   1.075       .  S
C14          C15   1.414       .  A
C14          C21   1.517       .  S
C15          H18   1.082       .  S
C19          C20   1.425       .  A
C19         C306   1.411       .  A
C19         C257   1.493       .  S
C20          C21   1.418       .  A
C20          H25   1.081       .  S
C21          C22   1.411       .  A
C22         C305   1.401       .  A
C22          H26   1.082       .  S
C23          C24   1.393       .  A
C23         C304   1.401       .  A
C23          C32   1.481       .  S
C24         C301   1.411       .  A
C24          H27   1.084       .  S
C28          C29   1.424       .  A
C28          C33   1.412       .  A
C28         C244   1.484       .  S
C29          C30   1.415       .  A
C29          H34   1.082       .  S
C30          C31   1.409       .  A
C31          C32   1.391       .  A
C31          H35   1.076       .  S
C32          C33   1.389       .  A
C33          H36   1.084       .  S
C37          C38   1.430       .  A
C37          C42   1.428       .  A
C37         C237   1.491       .  S
C38          C39   1.402       .  A
C38          H43   1.080       .  S
C39          C40   1.395       .  A
C39          C48   1.504       .  S
C40          C41   1.390       .  A
C40          H44   1.061       .  S
C41          C42   1.399       .  A
C41          C66   1.498       .  S
C42          H45   1.083       .  S
C46          C47   1.429       .  A
C46          C51   1.426       .  A
C46         C224   1.489       .  S
C47          C48   1.402       .  A
C47          H52   1.081       .  S
C48          C49   1.395       .  A
C49          C50   1.391       .  A
C49          H53   1.060       .  S
C50          C51   1.399       .  A
C50          C57   1.498       .  S
C51          H54   1.083       .  S
C55          C56   1.424       .  A
C55          C60   1.417       .  A
C55         C214   1.485       .  S
C56          C57   1.402       .  A
C56          H61   1.081       .  S
C57          C58   1.401       .  A
C58          C59   1.397       .  A
C58          H62   1.069       .  S
C59          C60   1.395       .  A
C59          C68   1.486       .  S
C60          H63   1.083       .  S
C64          C65   1.424       .  A
C64          C69   1.417       .  A
C64         C204   1.483       .  S
C65          C66   1.403       .  A
C65          H70   1.081       .  S
C66          C67   1.402       .  A
C67          C68   1.397       .  A
C67          H71   1.069       .  S
C68          C69   1.393       .  A
C69          H72   1.084       .  S
C73          C74   1.422       .  A
C73          C78   1.424       .  A
C73         C194   1.475       .  S
C74          C75   1.401       .  A
C74          H79   1.083       .  S
C75          C76   1.399       .  A
C75          C86   1.506       .  S
C76          C77   1.402       .  A
C76          H80   1.062       .  S
C77          C78   1.406       .  A
C77          C93   1.510       .  S
C78          H81   1.083       .  S
C82          C83   1.421       .  A
C82          C87   1.422       .  A
C82         C184   1.473       .  S
C83          C84   1.401       .  A
C83          H88   1.083       .  S
C84          C85   1.400       .  A
C84         C102   1.504       .  S
C85          C86   1.399       .  A
C85          H89   1.062       .  S
C86          C87   1.405       .  A
C87          H90   1.083       .  S
C91          C92   1.430       .  A
C91          C96   1.425       .  A
C91         C177   1.484       .  S
C92          C93   1.407       .  A
C92          H97   1.082       .  S
C93          C94   1.395       .  A
C94          C95   1.395       .  A
C94          H98   1.057       .  S
C95          C96   1.399       .  A
C95         C104   1.505       .  S
C96          H99   1.083       .  S
C100        C101   1.430       .  A
C100        C105   1.430       .  A
C100        C164   1.496       .  S
C101        C102   1.403       .  A
C101        H106   1.083       .  S
C102        C103   1.393       .  A
C103        C104   1.395       .  A
C103        H107   1.060       .  S
C104        C105   1.402       .  A
C105        H108   1.080       .  S
O109        C120   1.291       .  A
O109       Eu709   2.454   1_556  S
O110        C121   1.290       .  A
O110       Eu708   2.449       .  S
O111        C122   1.291       .  A
O111       Eu399   2.460       .  S
O112        C123   1.293       .  A
O112       Eu117   2.465       .  S
O113        C123   1.292       .  A
O113       Eu711   2.462       .  S
O114        C122   1.292       .  A
O114       Eu710   2.464       .  S
O115        C121   1.294       .  A
O115       Eu399   2.468       .  S
O116        C120   1.293       .  A
O116      Eu1245   2.463   1_556  S
Eu117       O393   2.460   1_554  S
Eu117       O397   2.468       .  S
Eu117      O1244   2.463   1_454  S
Eu117       O691   2.343       .  S
Eu117       O965   2.363   1_554  S
Eu117       O682   2.361       .  S
Eu117       O971   2.341   1_554  S
O118       Eu147   2.355       .  S
O118       Eu681   2.361   1_545  S
O118       Eu426   2.361   1_554  S
O119       Eu146   2.355       .  S
O119       Eu963   2.363   1_545  S
O119      Eu1555   2.358   1_455  S
C120        C277   1.483       .  S
C121        C247   1.487       .  S
C122        C187   1.468       .  S
C123        C167   1.485       .  S
H124        O125   0.965       .  S
O125       Eu146   2.346       .  S
O125       Eu144   2.342       .  S
O125       Eu963   2.341   1_545  S
H126        O127   0.965       .  S
O127       Eu147   2.349       .  S
O127       Eu681   2.343   1_545  S
O127      Eu1273   2.343   1_455  S
O128        C151   1.290       .  A
O128       Eu144   2.454       .  S
O129        C152   1.289       .  A
O129       Eu145   2.447       .  S
O130        C153   1.292       .  A
O130       Eu146   2.455       .  S
O131        C154   1.287       .  A
O131       Eu147   2.436       .  S
O132        C155   1.288       .  A
O132      Eu1275   2.442       .  S
O133        C156   1.290       .  A
O133      Eu1274   2.451       .  S
O134        C157   1.292       .  A
O134       Eu148   2.467       .  S
O135        C158   1.292       .  A
O135       Eu430   2.464   1_554  S
O136        C157   1.291       .  A
O136       Eu146   2.461       .  S
O137        C158   1.292       .  A
O137       Eu147   2.465       .  S
O138        C153   1.290       .  A
O138       Eu144   2.456       .  S
O139        C156   1.291       .  A
O139       Eu427   2.461       .  S
O140        C155   1.291       .  A
O140       Eu145   2.456       .  S
O141        C154   1.292       .  A
O141       Eu426   2.460   1_554  S
O142        C151   1.294       .  A
O142       Eu148   2.469       .  S
O143        C152   1.295       .  A
O143      Eu1558   2.476   1_554  S
Eu144       O674   2.449   1_545  S
Eu144       O423   2.460       .  S
Eu144       O150   2.362       .  S
Eu144       O400   2.361       .  S
Eu144       O444   2.342       .  S
Eu145       O673   2.455   1_544  S
Eu145       O421   2.462   1_554  S
Eu145      O1529   2.358   1_554  S
Eu145      O1255   2.338       .  S
Eu145      O1277   2.358       .  S
Eu145      O1570   2.342   1_554  S
Eu146       O678   2.464   1_545  S
Eu146      O1261   2.451   1_455  S
Eu146       O160   2.347       .  S
Eu146       O150   2.359       .  S
Eu147       O677   2.462   1_545  S
Eu147      O1260   2.439   1_455  S
Eu147       O149   2.356       .  S
Eu147       O162   2.346       .  S
Eu148       O417   2.464       .  S
Eu148      O1553   2.476   1_455  S
Eu148       O160   2.340       .  S
Eu148       O150   2.364       .  S
Eu148       O431   2.361       .  S
Eu148       O444   2.345       .  S
O149      Eu1273   2.359   1_455  S
O149       Eu430   2.360   1_554  S
C151        C254   1.485       .  S
C152        C264   1.490       .  S
C153        C227   1.479       .  S
C154        C217   1.475       .  S
C155        C207   1.473       .  S
C156        C234   1.481       .  S
C157        C197   1.470       .  S
C158        C174   1.476       .  S
H159        O160   0.965   1_655  S
O160      Eu1555   2.344   1_455  S
H161        O162   0.965       .  S
O162       Eu426   2.342   1_554  S
O162       Eu430   2.345   1_554  S
C163        C164   1.410       .  A
C163        C168   1.396       .  A
C163        H170   1.083       .  S
C164        C165   1.411       .  A
C165        C166   1.402       .  A
C165        F172   1.356       .  S
C166        C167   1.407       .  A
C166        H171   1.083       .  S
C167        C168   1.406       .  A
C168        F169   1.358       .  S
C173        C174   1.406       .  A
C173        C178   1.403       .  A
C173        H180   1.081       .  S
C174        C175   1.402       .  A
C175        C176   1.396       .  A
C175       F1310   1.358       .  S
C176        C177   1.408       .  A
C176       H1309   1.083       .  S
C177        C178   1.405       .  A
C178        F179   1.357       .  S
H181       C1304   1.083       .  S
F182       C1303   1.358       .  S
C183        C184   1.404       .  A
C183        C188   1.396       .  A
C183       H1318   1.084       .  S
C184        C185   1.403       .  A
C185        C186   1.403       .  A
C185        F192   1.357       .  S
C186        C187   1.406       .  A
C186        H191   1.083       .  S
C187        C188   1.400       .  A
C188       F1317   1.358   1_455  S
F189       C1316   1.358       .  S
H190       C1311   1.084       .  S
C193        C194   1.405       .  A
C193        C198   1.396       .  A
C193        H200   1.084       .  S
C194        C195   1.404       .  A
C195        C196   1.404       .  A
C195       F1330   1.357   1_455  S
C196        C197   1.407       .  A
C196       H1329   1.084   1_455  S
C197        C198   1.401       .  A
C198        F199   1.358       .  S
H201       C1324   1.084       .  S
F202       C1323   1.357       .  S
C203        C204   1.409       .  A
C203        C208   1.390       .  A
C203        H210   1.083       .  S
C204        C205   1.407       .  A
C205        C206   1.399       .  A
C205        F212   1.357       .  S
C206        C207   1.407       .  A
C206        H211   1.083       .  S
C207        C208   1.402       .  A
C208        F209   1.358       .  S
C213        C214   1.404       .  A
C213        C218   1.397       .  A
C213        H220   1.082       .  S
C214        C215   1.414       .  A
C215        C216   1.392       .  A
C215        F222   1.358       .  S
C216        C217   1.399       .  A
C216        H221   1.084       .  S
C217        C218   1.409       .  A
C218        F219   1.356       .  S
C223        C224   1.406       .  A
C223        C228   1.400       .  A
C223        H230   1.082       .  S
C224        C225   1.414       .  A
C225        C226   1.393       .  A
C225        F232   1.357       .  S
C226        C227   1.401       .  A
C226        H231   1.083       .  S
C227        C228   1.409       .  A
C228        F229   1.358       .  S
C233        C234   1.407       .  A
C233        C238   1.401       .  A
C233        H240   1.083       .  S
C234        C235   1.405       .  A
C235        C236   1.392       .  A
C235        F242   1.358       .  S
C236        C237   1.409       .  A
C236        H241   1.083       .  S
C237        C238   1.410       .  A
C238        F239   1.356       .  S
C243        C244   1.405       .  A
C243        C248   1.393       .  A
C243        H250   1.084       .  S
C244        C527   1.405       .  A
C245        C246   1.403       .  A
C245        C526   1.405   1_554  A
C245        F252   1.357       .  S
C246        C529   1.411   1_554  A
C246        H251   1.083       .  S
C247        C248   1.408       .  A
C247        C528   1.411       .  A
C248        F249   1.358       .  S
C253        C258   1.392       .  A
C253        C536   1.401       .  A
C253        H260   1.083       .  S
C254        C255   1.412       .  A
C254        C535   1.401       .  A
C255        C256   1.405       .  A
C255        F262   1.357       .  S
C256        C539   1.407       .  A
C256        H261   1.082       .  S
C257        C258   1.413       .  A
C257        C538   1.407   1_554  A
C258        F259   1.358       .  S
C263        C268   1.395       .  A
C263        C546   1.404       .  A
C263        H270   1.083       .  S
C264        C265   1.415   1_554  A
C264        C545   1.404       .  A
C265        C266   1.402       .  A
C265        F272   1.357       .  S
C266        C267   1.403   1_556  A
C266        H271   1.083       .  S
C267        C550   1.411       .  A
C268        C549   1.410       .  A
C268        F269   1.358       .  S
C273        C278   1.393       .  A
C273        C556   1.408       .  A
C273        H280   1.083       .  S
C274        C275   1.410   1_556  A
C274        C555   1.408       .  A
C274        C283   1.493       .  S
C275        C276   1.404       .  A
C275        F282   1.356       .  S
C276        C277   1.408   1_554  A
C276        H281   1.083       .  S
C277        C560   1.405       .  A
C278        C559   1.405       .  A
C278        F279   1.358       .  S
C283        C288   1.423       .  A
C284        C285   1.394       .  A
C284        H289   1.084       .  S
C285        C286   1.401       .  A
C285        C294   1.484       .  S
C286        H290   1.082       .  S
C287        C288   1.415       .  A
C287        C312   1.516       .  S
C288        H291   1.080       .  S
C292        C293   1.414       .  A
C292        C297   1.426       .  A
C292        C549   1.488       .  S
C293        C294   1.390       .  A
C293        H298   1.083       .  S
C294        C295   1.391       .  A
C295        C296   1.408       .  A
C295        H299   1.075       .  S
C296        C297   1.414       .  A
C296        C303   1.517       .  S
C297        H300   1.082       .  S
C301        C302   1.425       .  A
C301        C539   1.494       .  S
C302        C303   1.418       .  A
C302        H307   1.081       .  S
C303        C304   1.411       .  A
C304        H308   1.082       .  S
C305        C306   1.393       .  A
C305        C314   1.481       .  S
C306        H309   1.084       .  S
C310        C311   1.424       .  A
C310        C315   1.412   1_556  A
C310        C526   1.484       .  S
C311        C312   1.415       .  A
C311        H316   1.082       .  S
C312        C313   1.409       .  A
C313        C314   1.391   1_556  A
C313        H317   1.076       .  S
C314        C315   1.389       .  A
C315        H318   1.084       .  S
C319        C320   1.430       .  A
C319        C324   1.428       .  A
C319        C519   1.491       .  S
C320        C321   1.402       .  A
C320        H325   1.080       .  S
C321        C322   1.395       .  A
C321        C330   1.504       .  S
C322        C323   1.390       .  A
C322        H326   1.061       .  S
C323        C324   1.399       .  A
C323        C348   1.498       .  S
C324        H327   1.083       .  S
C328        C329   1.429       .  A
C328        C333   1.426       .  A
C328        C506   1.489       .  S
C329        C330   1.402       .  A
C329        H334   1.081       .  S
C330        C331   1.395       .  A
C331        C332   1.391       .  A
C331        H335   1.060       .  S
C332        C333   1.399       .  A
C332        C339   1.498       .  S
C333        H336   1.083       .  S
C337        C338   1.424       .  A
C337        C342   1.417       .  A
C337        C496   1.485       .  S
C338        C339   1.402       .  A
C338        H343   1.081       .  S
C339        C340   1.401       .  A
C340        C341   1.397       .  A
C340        H344   1.069       .  S
C341        C342   1.395       .  A
C341        C350   1.486       .  S
C342        H345   1.083       .  S
C346        C347   1.424       .  A
C346        C351   1.417       .  A
C346        C486   1.483       .  S
C347        C348   1.403       .  A
C347        H352   1.081       .  S
C348        C349   1.402       .  A
C349        C350   1.397       .  A
C349        H353   1.069       .  S
C350        C351   1.393       .  A
C351        H354   1.084       .  S
C355        C356   1.422       .  A
C355        C360   1.424       .  A
C355        C476   1.475       .  S
C356        C357   1.401       .  A
C356        H361   1.083       .  S
C357        C358   1.399       .  A
C357        C368   1.506       .  S
C358        C359   1.402       .  A
C358        H362   1.062       .  S
C359        C360   1.406       .  A
C359        C375   1.510       .  S
C360        H363   1.083       .  S
C364        C365   1.421       .  A
C364        C369   1.422       .  A
C364        C466   1.473       .  S
C365        C366   1.401       .  A
C365        H370   1.083       .  S
C366        C367   1.400       .  A
C366        C384   1.504       .  S
C367        C368   1.399       .  A
C367        H371   1.062       .  S
C368        C369   1.405       .  A
C369        H372   1.083       .  S
C373        C374   1.430       .  A
C373        C378   1.425       .  A
C373        C459   1.484       .  S
C374        C375   1.407       .  A
C374        H379   1.082       .  S
C375        C376   1.395       .  A
C376        C377   1.395       .  A
C376        H380   1.057       .  S
C377        C378   1.399       .  A
C377        C386   1.505       .  S
C378        H381   1.083       .  S
C382        C383   1.430       .  A
C382        C387   1.430       .  A
C382        C446   1.496       .  S
C383        C384   1.403       .  A
C383        H388   1.083       .  S
C384        C385   1.393       .  A
C385        C386   1.395       .  A
C385        H389   1.060       .  S
C386        C387   1.402       .  A
C387        H390   1.080       .  S
O391        C402   1.291       .  A
O391       Eu991   2.455       .  S
O392        C403   1.290       .  A
O392       Eu990   2.449   1_554  S
O393        C404   1.291       .  A
O394        C405   1.293       .  A
O394       Eu399   2.465       .  S
O395        C405   1.292       .  A
O395       Eu993   2.462       .  S
O396        C404   1.292       .  A
O396       Eu992   2.464       .  S
O397        C403   1.294       .  A
O398        C402   1.293       .  A
O398      Eu1527   2.464       .  S
Eu399      O1526   2.464   1_455  S
Eu399       O973   2.343       .  S
Eu399       O683   2.363       .  S
Eu399       O964   2.361       .  S
Eu399       O689   2.341       .  S
O400       Eu963   2.361   1_545  S
O400       Eu429   2.355       .  S
O401       Eu681   2.363   1_546  S
O401      Eu1273   2.359   1_456  S
O401       Eu428   2.355       .  S
C402        C559   1.483       .  S
C403        C529   1.487   1_554  S
C404        C469   1.468       .  S
C405        C449   1.485       .  S
H406        O407   0.965       .  S
O407       Eu681   2.341   1_546  S
O407       Eu428   2.346       .  S
O407       Eu426   2.342       .  S
H408        O409   0.965   1_665  S
O409       Eu963   2.343   1_545  S
O409      Eu1555   2.343   1_455  S
O409       Eu429   2.349       .  S
O410        C433   1.290       .  A
O410       Eu426   2.453       .  S
O411        C434   1.289       .  A
O411       Eu427   2.446       .  S
O412        C435   1.292       .  A
O412       Eu428   2.455       .  S
O413        C436   1.287       .  A
O413       Eu429   2.437       .  S
O414        C437   1.288       .  A
O414      Eu1557   2.439       .  S
O415        C438   1.290       .  A
O415      Eu1556   2.451       .  S
O416        C439   1.292       .  A
O416       Eu430   2.467       .  S
O417        C440   1.292       .  A
O418        C439   1.291       .  A
O418       Eu428   2.461       .  S
O419        C440   1.292       .  A
O419       Eu429   2.465       .  S
O420        C435   1.290       .  A
O420       Eu426   2.455       .  S
O421        C438   1.292       .  A
O422        C437   1.291       .  A
O422       Eu427   2.455       .  S
O423        C436   1.292       .  A
O424        C433   1.294       .  A
O424       Eu430   2.468       .  S
O425        C434   1.295       .  A
O425      Eu1276   2.476       .  S
Eu426       O956   2.449   1_546  S
Eu426       O432   2.362       .  S
Eu427       O955   2.455   1_545  S
Eu427      O1247   2.358       .  S
Eu427      O1537   2.343       .  S
Eu427      O1559   2.358       .  S
Eu427      O1288   2.344       .  S
Eu428       O960   2.464   1_545  S
Eu428      O1543   2.451   1_455  S
Eu428       O442   2.347       .  S
Eu428       O432   2.358       .  S
Eu429       O959   2.462   1_545  S
Eu429      O1542   2.439   1_455  S
Eu429       O431   2.356       .  S
Eu429       O444   2.346       .  S
Eu430      O1271   2.476   1_456  S
Eu430       O442   2.340       .  S
Eu430       O432   2.364       .  S
O431      Eu1555   2.358   1_455  S
C433        C536   1.484   1_556  S
C434        C546   1.489       .  S
C435        C509   1.479       .  S
C436        C499   1.475       .  S
C437        C489   1.472       .  S
C438        C516   1.481       .  S
C439        C479   1.470       .  S
C440        C456   1.476       .  S
H441        O442   0.965   1_655  S
O442      Eu1273   2.344   1_456  S
H443        O444   0.965       .  S
C445        C446   1.410       .  A
C445        C450   1.396       .  A
C445        H452   1.083       .  S
C446        C447   1.411       .  A
C447        C448   1.402       .  A
C447        F454   1.356       .  S
C448        C449   1.407       .  A
C448        H453   1.083       .  S
C449        C450   1.406       .  A
C450        F451   1.358       .  S
C455        C456   1.406       .  A
C455        C460   1.403       .  A
C455        H462   1.081       .  S
C456        C457   1.402       .  A
C457        C458   1.397       .  A
C457       F1592   1.358       .  S
C458        C459   1.408       .  A
C458       H1591   1.083       .  S
C459        C460   1.405       .  A
C460        F461   1.357       .  S
H463       C1586   1.083       .  S
F464       C1585   1.358       .  S
C465        C466   1.404       .  A
C465        C470   1.396       .  A
C465       H1600   1.084       .  S
C466        C467   1.403       .  A
C467        C468   1.403       .  A
C467        F474   1.357       .  S
C468        C469   1.406       .  A
C468        H473   1.083       .  S
C469        C470   1.400       .  A
C470       F1599   1.358   1_455  S
F471       C1598   1.358       .  S
H472       C1593   1.084       .  S
C475        C476   1.405       .  A
C475        C480   1.396       .  A
C475        H482   1.084       .  S
C476        C477   1.404       .  A
C477        C478   1.404       .  A
C477       F1612   1.357   1_455  S
C478        C479   1.407       .  A
C478       H1611   1.084   1_455  S
C479        C480   1.401       .  A
C480        F481   1.358       .  S
H483       C1606   1.084       .  S
F484       C1605   1.357       .  S
C485        C486   1.409       .  A
C485        C490   1.390       .  A
C485        H492   1.083       .  S
C486        C487   1.407       .  A
C487        C488   1.399       .  A
C487        F494   1.357       .  S
C488        C489   1.407       .  A
C488        H493   1.083       .  S
C489        C490   1.402       .  A
C490        F491   1.358       .  S
C495        C496   1.404       .  A
C495        C500   1.397       .  A
C495        H502   1.082       .  S
C496        C497   1.414       .  A
C497        C498   1.392       .  A
C497        F504   1.358       .  S
C498        C499   1.399       .  A
C498        H503   1.084       .  S
C499        C500   1.409       .  A
C500        F501   1.356       .  S
C505        C506   1.406       .  A
C505        C510   1.400       .  A
C505        H512   1.082       .  S
C506        C507   1.414       .  A
C507        C508   1.393       .  A
C507        F514   1.357       .  S
C508        C509   1.401       .  A
C508        H513   1.083       .  S
C509        C510   1.409       .  A
C510        F511   1.358       .  S
C515        C516   1.407       .  A
C515        C520   1.402       .  A
C515        H522   1.083       .  S
C516        C517   1.405       .  A
C517        C518   1.392       .  A
C517        F524   1.358       .  S
C518        C519   1.409       .  A
C518        H523   1.083       .  S
C519        C520   1.410       .  A
C520        F521   1.356       .  S
C525        C526   1.405       .  A
C525        C530   1.393       .  A
C525        H532   1.084       .  S
C527        C528   1.403       .  A
C527        F534   1.357       .  S
C528        H533   1.083       .  S
C529        C530   1.408       .  A
C530        F531   1.358       .  S
C535        C540   1.392       .  A
C535        H542   1.083       .  S
C536        C537   1.412   1_554  A
C537        C538   1.405       .  A
C537        F544   1.357       .  S
C538        H543   1.082       .  S
C539        C540   1.413       .  A
C540        F541   1.358       .  S
C545        C550   1.395       .  A
C545        H552   1.083       .  S
C546        C547   1.415       .  A
C547        C548   1.402       .  A
C547        F554   1.357       .  S
C548        C549   1.403       .  A
C548        H553   1.083       .  S
C550        F551   1.358       .  S
C555        C560   1.393       .  A
C555        H562   1.083       .  S
C556        C557   1.410       .  A
C557        C558   1.404       .  A
C557        F564   1.356       .  S
C558        C559   1.408       .  A
C558        H563   1.083       .  S
C560        F561   1.358       .  S
C565        C848   1.412       .  A
C565        C570   1.423       .  A
C565       C1120   1.493       .  S
C566        C847   1.412       .  A
C566        C567   1.394       .  A
C566        H571   1.084       .  S
C567        C568   1.401       .  A
C567        C576   1.484       .  S
C568        C851   1.411       .  A
C568        H572   1.082       .  S
C569        C850   1.411       .  A
C569        C570   1.415       .  A
C569        C594   1.517       .  S
C570        H573   1.080       .  S
C574        C575   1.414   1_554  A
C574        C579   1.426       .  A
C574        C831   1.488       .  S
C575        C576   1.390       .  A
C575        H580   1.083       .  S
C576        C577   1.391   1_556  A
C577        C578   1.408       .  A
C577        H581   1.075       .  S
C578        C579   1.414       .  A
C578        C585   1.517       .  S
C579        H582   1.082       .  S
C583        C584   1.425       .  A
C583        C870   1.411       .  A
C583        C821   1.493       .  S
C584        C585   1.418       .  A
C584        H589   1.081       .  S
C585        C586   1.411       .  A
C586        C869   1.401       .  A
C586        H590   1.082       .  S
C587        C868   1.401       .  A
C587        C588   1.393       .  A
C587        C596   1.481       .  S
C588        C865   1.411       .  A
C588        H591   1.084       .  S
C592        C593   1.424       .  A
C592        C597   1.412       .  A
C592        C808   1.484       .  S
C593        C594   1.415       .  A
C593        H598   1.082       .  S
C594        C595   1.409       .  A
C595        C596   1.391       .  A
C595        H599   1.076       .  S
C596        C597   1.389       .  A
C597        H600   1.084       .  S
C601        C602   1.430       .  A
C601        C606   1.428       .  A
C601        C801   1.491       .  S
C602        C603   1.402       .  A
C602        H607   1.080       .  S
C603        C604   1.395       .  A
C603        C612   1.504       .  S
C604        C605   1.390       .  A
C604        H608   1.061       .  S
C605        C606   1.399       .  A
C605        C630   1.498       .  S
C606        H609   1.083       .  S
C610        C611   1.429       .  A
C610        C615   1.426       .  A
C610        C788   1.489       .  S
C611        C612   1.402       .  A
C611        H616   1.081       .  S
C612        C613   1.395       .  A
C613        C614   1.391       .  A
C613        H617   1.060       .  S
C614        C615   1.399       .  A
C614        C621   1.498       .  S
C615        H618   1.083       .  S
C619        C620   1.424       .  A
C619        C624   1.417       .  A
C619        C778   1.485       .  S
C620        C621   1.402       .  A
C620        H625   1.081       .  S
C621        C622   1.401       .  A
C622        C623   1.397       .  A
C622        H626   1.069       .  S
C623        C624   1.395       .  A
C623        C632   1.486       .  S
C624        H627   1.083       .  S
C628        C629   1.424       .  A
C628        C633   1.417       .  A
C628        C768   1.483       .  S
C629        C630   1.403       .  A
C629        H634   1.081       .  S
C630        C631   1.402       .  A
C631        C632   1.397       .  A
C631        H635   1.069       .  S
C632        C633   1.393       .  A
C633        H636   1.084       .  S
C637        C638   1.422       .  A
C637        C642   1.424       .  A
C637        C758   1.475       .  S
C638        C639   1.401       .  A
C638        H643   1.083       .  S
C639        C640   1.399       .  A
C639        C650   1.506       .  S
C640        C641   1.402       .  A
C640        H644   1.062       .  S
C641        C642   1.406       .  A
C641        C657   1.510       .  S
C642        H645   1.083       .  S
C646        C647   1.421       .  A
C646        C651   1.423       .  A
C646        C748   1.473       .  S
C647        C648   1.401       .  A
C647        H652   1.083       .  S
C648        C649   1.400       .  A
C648        C666   1.504       .  S
C649        C650   1.399       .  A
C649        H653   1.062       .  S
C650        C651   1.405       .  A
C651        H654   1.083       .  S
C655        C656   1.430       .  A
C655        C660   1.425       .  A
C655        C741   1.484       .  S
C656        C657   1.407       .  A
C656        H661   1.082       .  S
C657        C658   1.395       .  A
C658        C659   1.395       .  A
C658        H662   1.057       .  S
C659        C660   1.399       .  A
C659        C668   1.505       .  S
C660        H663   1.083       .  S
C664        C665   1.430       .  A
C664        C669   1.430       .  A
C664        C728   1.496       .  S
C665        C666   1.403       .  A
C665        H670   1.083       .  S
C666        C667   1.393       .  A
C667        C668   1.395       .  A
C667        H671   1.060       .  S
C668        C669   1.402       .  A
C669        H672   1.080       .  S
O673        C684   1.290       .  A
O674        C685   1.290       .  A
O675        C686   1.291       .  A
O675       Eu963   2.460       .  S
O676        C687   1.293       .  A
O676       Eu681   2.465       .  S
O677        C687   1.292       .  A
O678        C686   1.292       .  A
O679        C685   1.294       .  A
O679       Eu963   2.469       .  S
O680        C684   1.293       .  A
O680      Eu1809   2.465   1_556  S
Eu681       O957   2.460   1_554  S
Eu681       O961   2.468       .  S
Eu681      O1808   2.463   1_454  S
O682       Eu711   2.355       .  S
O682       Eu990   2.361   1_554  S
O683      Eu2119   2.358   1_455  S
O683       Eu710   2.355       .  S
C684        C841   1.484       .  S
C685        C811   1.487       .  S
C686        C751   1.468       .  S
C687        C731   1.485       .  S
H688        O689   0.965       .  S
O689       Eu710   2.346       .  S
O689       Eu708   2.342       .  S
H690        O691   0.965       .  S
O691      Eu1837   2.343   1_455  S
O691       Eu711   2.349       .  S
O692        C715   1.290       .  A
O692       Eu708   2.454       .  S
O693        C716   1.289       .  A
O693       Eu709   2.446       .  S
O694        C717   1.292       .  A
O694       Eu710   2.455       .  S
O695        C718   1.287       .  A
O695       Eu711   2.436       .  S
O696        C719   1.288       .  A
O696      Eu1839   2.439       .  S
O697        C720   1.290       .  A
O697      Eu1838   2.451       .  S
O698        C721   1.292       .  A
O698       Eu712   2.467       .  S
O699        C722   1.292       .  A
O699       Eu994   2.464   1_554  S
O700        C721   1.291       .  A
O700       Eu710   2.461       .  S
O701        C722   1.292       .  A
O701       Eu711   2.465       .  S
O702        C717   1.290       .  A
O702       Eu708   2.455       .  S
O703        C720   1.291       .  A
O703       Eu991   2.461       .  S
O704        C719   1.291       .  A
O704       Eu709   2.455       .  S
O705        C718   1.292       .  A
O705       Eu990   2.460   1_554  S
O706        C715   1.294       .  A
O706       Eu712   2.468       .  S
O707        C716   1.295       .  A
O707      Eu2122   2.476   1_554  S
Eu708       O987   2.460       .  S
Eu708       O964   2.361       .  S
Eu708      O1008   2.342       .  S
Eu708       O714   2.362       .  S
Eu709       O985   2.461   1_554  S
Eu709      O2093   2.359   1_554  S
Eu709      O1819   2.343       .  S
Eu709      O1841   2.359       .  S
Eu709      O2134   2.344   1_554  S
Eu710      O1825   2.451   1_455  S
Eu710       O724   2.347       .  S
Eu710       O714   2.359       .  S
Eu711      O1824   2.439   1_455  S
Eu711       O713   2.356       .  S
Eu711       O726   2.346       .  S
Eu712       O981   2.464       .  S
Eu712      O2117   2.476   1_455  S
Eu712       O995   2.361       .  S
Eu712       O724   2.340       .  S
Eu712      O1008   2.345       .  S
Eu712       O714   2.364       .  S
O713      Eu1837   2.359   1_455  S
O713       Eu994   2.360   1_554  S
C715        C818   1.485       .  S
C716        C828   1.490       .  S
C717        C791   1.479       .  S
C718        C781   1.475       .  S
C719        C771   1.472       .  S
C720        C798   1.481       .  S
C721        C761   1.470       .  S
C722        C738   1.476       .  S
H723        O724   0.965   1_655  S
O724      Eu2119   2.344   1_455  S
H725        O726   0.965       .  S
O726       Eu990   2.342   1_554  S
O726       Eu994   2.345   1_554  S
C727        C728   1.410       .  A
C727        C732   1.396       .  A
C727        H734   1.083       .  S
C728        C729   1.411       .  A
C729        C730   1.402       .  A
C729        F736   1.356       .  S
C730        C731   1.407       .  A
C730        H735   1.083       .  S
C731        C732   1.406       .  A
C732        F733   1.358       .  S
C737        C738   1.406       .  A
C737        C742   1.403       .  A
C737        H744   1.081       .  S
C738        C739   1.402       .  A
C739        C740   1.397       .  A
C739       F1874   1.358       .  S
C740        C741   1.408       .  A
C740       H1873   1.083       .  S
C741        C742   1.405       .  A
C742        F743   1.357       .  S
H745       C1868   1.083       .  S
F746       C1867   1.358       .  S
C747        C748   1.404       .  A
C747        C752   1.396       .  A
C747       H1882   1.084       .  S
C748        C749   1.403       .  A
C749        C750   1.404       .  A
C749        F756   1.357       .  S
C750        C751   1.406       .  A
C750        H755   1.083       .  S
C751        C752   1.400       .  A
C752       F1881   1.358   1_455  S
F753       C1880   1.358       .  S
H754       C1875   1.084       .  S
C757        C758   1.405       .  A
C757        C762   1.396       .  A
C757        H764   1.084       .  S
C758        C759   1.404       .  A
C759        C760   1.404       .  A
C759       F1894   1.357   1_455  S
C760        C761   1.407       .  A
C760       H1893   1.084   1_455  S
C761        C762   1.401       .  A
C762        F763   1.358       .  S
H765       C1888   1.084       .  S
F766       C1887   1.357       .  S
C767        C768   1.409       .  A
C767        C772   1.390       .  A
C767        H774   1.083       .  S
C768        C769   1.407       .  A
C769        C770   1.399       .  A
C769        F776   1.357       .  S
C770        C771   1.407       .  A
C770        H775   1.083       .  S
C771        C772   1.402       .  A
C772        F773   1.358       .  S
C777        C778   1.404       .  A
C777        C782   1.397       .  A
C777        H784   1.082       .  S
C778        C779   1.414       .  A
C779        C780   1.392       .  A
C779        F786   1.358       .  S
C780        C781   1.399       .  A
C780        H785   1.084       .  S
C781        C782   1.409       .  A
C782        F783   1.356       .  S
C787        C788   1.406       .  A
C787        C792   1.400       .  A
C787        H794   1.082       .  S
C788        C789   1.414       .  A
C789        C790   1.393       .  A
C789        F796   1.357       .  S
C790        C791   1.401       .  A
C790        H795   1.083       .  S
C791        C792   1.409       .  A
C792        F793   1.358       .  S
C797        C798   1.407       .  A
C797        C802   1.402       .  A
C797        H804   1.083       .  S
C798        C799   1.405       .  A
C799        C800   1.392       .  A
C799        F806   1.358       .  S
C800        C801   1.409       .  A
C800        H805   1.083       .  S
C801        C802   1.410       .  A
C802        F803   1.356       .  S
C807        C808   1.405       .  A
C807        C812   1.394       .  A
C807        H814   1.084       .  S
C808       C1091   1.405       .  A
C809       C1090   1.405   1_554  A
C809        C810   1.403       .  A
C809        F816   1.357       .  S
C810       C1093   1.411   1_554  A
C810        H815   1.083       .  S
C811       C1092   1.411       .  A
C811        C812   1.408       .  A
C812        F813   1.358       .  S
C817       C1100   1.401       .  A
C817        C822   1.392       .  A
C817        H824   1.083       .  S
C818       C1099   1.401       .  A
C818        C819   1.412       .  A
C819        C820   1.405       .  A
C819        F826   1.357       .  S
C820       C1103   1.407       .  A
C820        H825   1.082       .  S
C821       C1102   1.407   1_554  A
C821        C822   1.413       .  A
C822        F823   1.358       .  S
C827       C1110   1.404       .  A
C827        C832   1.395       .  A
C827        H834   1.083       .  S
C828       C1109   1.404       .  A
C828        C829   1.415   1_554  A
C829        C830   1.402       .  A
C829        F836   1.357       .  S
C830        C831   1.403   1_556  A
C830        H835   1.083       .  S
C831       C1114   1.411       .  A
C832       C1113   1.411       .  A
C832        F833   1.358       .  S
C837       C1120   1.408       .  A
C837        C842   1.393       .  A
C837        H844   1.083       .  S
C838       C1119   1.408       .  A
C838        C839   1.410   1_556  A
C838        C847   1.493       .  S
C839        C840   1.404       .  A
C839        F846   1.356       .  S
C840        C841   1.409   1_554  A
C840        H845   1.083       .  S
C841       C1124   1.405       .  A
C842       C1123   1.405       .  A
C842        F843   1.358       .  S
C847        C852   1.423       .  A
C848        C849   1.394       .  A
C848        H853   1.084       .  S
C849        C850   1.401       .  A
C849        C858   1.484       .  S
C850        H854   1.082       .  S
C851        C852   1.415       .  A
C851        C876   1.516       .  S
C852        H855   1.080       .  S
C856        C857   1.414       .  A
C856        C861   1.426       .  A
C856       C1113   1.488       .  S
C857        C858   1.390       .  A
C857        H862   1.083       .  S
C858        C859   1.391       .  A
C859        C860   1.408       .  A
C859        H863   1.075       .  S
C860        C861   1.414       .  A
C860        C867   1.517       .  S
C861        H864   1.082       .  S
C865        C866   1.425       .  A
C865       C1103   1.494       .  S
C866        C867   1.418       .  A
C866        H871   1.081       .  S
C867        C868   1.411       .  A
C868        H872   1.082       .  S
C869        C870   1.393       .  A
C869        C878   1.481       .  S
C870        H873   1.084       .  S
C874        C875   1.424       .  A
C874        C879   1.412   1_556  A
C874       C1090   1.484       .  S
C875        C876   1.415       .  A
C875        H880   1.082       .  S
C876        C877   1.409       .  A
C877        C878   1.391   1_556  A
C877        H881   1.076       .  S
C878        C879   1.389       .  A
C879        H882   1.084       .  S
C883        C884   1.430       .  A
C883        C888   1.428       .  A
C883       C1083   1.491       .  S
C884        C885   1.402       .  A
C884        H889   1.080       .  S
C885        C886   1.395       .  A
C885        C894   1.504       .  S
C886        C887   1.390       .  A
C886        H890   1.061       .  S
C887        C888   1.399       .  A
C887        C912   1.498       .  S
C888        H891   1.083       .  S
C892        C893   1.429       .  A
C892        C897   1.426       .  A
C892       C1070   1.489       .  S
C893        C894   1.402       .  A
C893        H898   1.081       .  S
C894        C895   1.395       .  A
C895        C896   1.391       .  A
C895        H899   1.060       .  S
C896        C897   1.399       .  A
C896        C903   1.498       .  S
C897        H900   1.083       .  S
C901        C902   1.424       .  A
C901        C906   1.417       .  A
C901       C1060   1.485       .  S
C902        C903   1.402       .  A
C902        H907   1.081       .  S
C903        C904   1.401       .  A
C904        C905   1.397       .  A
C904        H908   1.069       .  S
C905        C906   1.395       .  A
C905        C914   1.486       .  S
C906        H909   1.083       .  S
C910        C911   1.424       .  A
C910        C915   1.417       .  A
C910       C1050   1.483       .  S
C911        C912   1.403       .  A
C911        H916   1.081       .  S
C912        C913   1.402       .  A
C913        C914   1.397       .  A
C913        H917   1.069       .  S
C914        C915   1.393       .  A
C915        H918   1.084       .  S
C919        C920   1.422       .  A
C919        C924   1.424       .  A
C919       C1040   1.475       .  S
C920        C921   1.401       .  A
C920        H925   1.083       .  S
C921        C922   1.399       .  A
C921        C932   1.506       .  S
C922        C923   1.402       .  A
C922        H926   1.062       .  S
C923        C924   1.406       .  A
C923        C939   1.510       .  S
C924        H927   1.083       .  S
C928        C929   1.421       .  A
C928        C933   1.422       .  A
C928       C1030   1.473       .  S
C929        C930   1.401       .  A
C929        H934   1.083       .  S
C930        C931   1.400       .  A
C930        C948   1.504       .  S
C931        C932   1.399       .  A
C931        H935   1.062       .  S
C932        C933   1.405       .  A
C933        H936   1.083       .  S
C937        C938   1.430       .  A
C937        C942   1.425       .  A
C937       C1023   1.484       .  S
C938        C939   1.407       .  A
C938        H943   1.082       .  S
C939        C940   1.395       .  A
C940        C941   1.395       .  A
C940        H944   1.057       .  S
C941        C942   1.399       .  A
C941        C950   1.505       .  S
C942        H945   1.083       .  S
C946        C947   1.430       .  A
C946        C951   1.430       .  A
C946       C1010   1.496       .  S
C947        C948   1.403       .  A
C947        H952   1.083       .  S
C948        C949   1.393       .  A
C949        C950   1.395       .  A
C949        H953   1.060       .  S
C950        C951   1.402       .  A
C951        H954   1.080       .  S
O955        C966   1.291       .  A
O956        C967   1.290       .  A
O957        C968   1.291       .  A
O958        C969   1.293       .  A
O958       Eu963   2.465       .  S
O959        C969   1.292       .  A
O960        C968   1.292       .  A
O961        C967   1.294       .  A
O962        C966   1.293       .  A
O962      Eu2091   2.463       .  S
Eu963      O2090   2.463   1_455  S
O964       Eu993   2.355       .  S
O965      Eu1837   2.359   1_456  S
O965       Eu992   2.355       .  S
C966       C1123   1.483       .  S
C967       C1093   1.487   1_554  S
C968       C1033   1.468       .  S
C969       C1013   1.485       .  S
H970        O971   0.965       .  S
O971       Eu992   2.346       .  S
O971       Eu990   2.342       .  S
H972        O973   0.965       .  S
O973      Eu2119   2.343   1_455  S
O973       Eu993   2.349       .  S
O974        C997   1.290       .  A
O974       Eu990   2.454       .  S
O975        C998   1.289       .  A
O975       Eu991   2.446       .  S
O976        C999   1.292       .  A
O976       Eu992   2.455       .  S
O977       C1000   1.287       .  A
O977       Eu993   2.436       .  S
O978       C1001   1.288       .  A
O978      Eu2121   2.439       .  S
O979       C1002   1.290       .  A
O979      Eu2120   2.451       .  S
O980       C1003   1.292       .  A
O980       Eu994   2.467       .  S
O981       C1004   1.292       .  A
O982       C1003   1.291       .  A
O982       Eu992   2.461       .  S
O983       C1004   1.292       .  A
O983       Eu993   2.465       .  S
O984        C999   1.290       .  A
O984       Eu990   2.455       .  S
O985       C1002   1.291       .  A
O986       C1001   1.291       .  A
O986       Eu991   2.455       .  S
O987       C1000   1.292       .  A
O988        C997   1.294       .  A
O988       Eu994   2.468       .  S
O989        C998   1.295       .  A
O989      Eu1840   2.476       .  S
Eu990       O996   2.362       .  S
Eu991      O1811   2.358       .  S
Eu991      O2101   2.343       .  S
Eu991      O2123   2.359       .  S
Eu991      O1852   2.344       .  S
Eu992      O2107   2.451   1_455  S
Eu992      O1006   2.347       .  S
Eu992       O996   2.358       .  S
Eu993      O2106   2.439   1_455  S
Eu993       O995   2.356       .  S
Eu993      O1008   2.346       .  S
Eu994      O1835   2.476   1_456  S
Eu994      O1006   2.340       .  S
Eu994       O996   2.364       .  S
O995      Eu2119   2.359   1_455  S
C997       C1100   1.484   1_556  S
C998       C1110   1.489       .  S
C999       C1073   1.479       .  S
C1000      C1063   1.475       .  S
C1001      C1053   1.472       .  S
C1002      C1080   1.481       .  S
C1003      C1043   1.470       .  S
C1004      C1020   1.476       .  S
H1005      O1006   0.965   1_655  S
O1006     Eu1837   2.344   1_456  S
H1007      O1008   0.965       .  S
C1009      C1010   1.410       .  A
C1009      C1014   1.396       .  A
C1009      H1016   1.083       .  S
C1010      C1011   1.411       .  A
C1011      C1012   1.402       .  A
C1011      F1018   1.356       .  S
C1012      C1013   1.407       .  A
C1012      H1017   1.083       .  S
C1013      C1014   1.406       .  A
C1014      F1015   1.358       .  S
C1019      C1020   1.406       .  A
C1019      C1024   1.403       .  A
C1019      H1026   1.081       .  S
C1020      C1021   1.402       .  A
C1021      C1022   1.397       .  A
C1021      F2156   1.358       .  S
C1022      C1023   1.408       .  A
C1022      H2155   1.083       .  S
C1023      C1024   1.405       .  A
C1024      F1025   1.357       .  S
H1027      C2150   1.083       .  S
F1028      C2149   1.358       .  S
C1029      C1030   1.404       .  A
C1029      C1034   1.396       .  A
C1029      H2164   1.084       .  S
C1030      C1031   1.403       .  A
C1031      C1032   1.403       .  A
C1031      F1038   1.357       .  S
C1032      C1033   1.406       .  A
C1032      H1037   1.083       .  S
C1033      C1034   1.400       .  A
C1034      F2163   1.358   1_455  S
F1035      C2162   1.358       .  S
H1036      C2157   1.084       .  S
C1039      C1040   1.405       .  A
C1039      C1044   1.396       .  A
C1039      H1046   1.084       .  S
C1040      C1041   1.404       .  A
C1041      C1042   1.404       .  A
C1041      F2176   1.357   1_455  S
C1042      C1043   1.407       .  A
C1042      H2175   1.084   1_455  S
C1043      C1044   1.401       .  A
C1044      F1045   1.358       .  S
H1047      C2170   1.084       .  S
F1048      C2169   1.357       .  S
C1049      C1050   1.409       .  A
C1049      C1054   1.390       .  A
C1049      H1056   1.083       .  S
C1050      C1051   1.407       .  A
C1051      C1052   1.399       .  A
C1051      F1058   1.357       .  S
C1052      C1053   1.407       .  A
C1052      H1057   1.083       .  S
C1053      C1054   1.402       .  A
C1054      F1055   1.358       .  S
C1059      C1060   1.404       .  A
C1059      C1064   1.397       .  A
C1059      H1066   1.082       .  S
C1060      C1061   1.414       .  A
C1061      C1062   1.392       .  A
C1061      F1068   1.358       .  S
C1062      C1063   1.399       .  A
C1062      H1067   1.084       .  S
C1063      C1064   1.409       .  A
C1064      F1065   1.356       .  S
C1069      C1070   1.406       .  A
C1069      C1074   1.400       .  A
C1069      H1076   1.082       .  S
C1070      C1071   1.414       .  A
C1071      C1072   1.393       .  A
C1071      F1078   1.357       .  S
C1072      C1073   1.401       .  A
C1072      H1077   1.083       .  S
C1073      C1074   1.409       .  A
C1074      F1075   1.358       .  S
C1079      C1080   1.407       .  A
C1079      C1084   1.402       .  A
C1079      H1086   1.083       .  S
C1080      C1081   1.405       .  A
C1081      C1082   1.392       .  A
C1081      F1088   1.358       .  S
C1082      C1083   1.409       .  A
C1082      H1087   1.083       .  S
C1083      C1084   1.410       .  A
C1084      F1085   1.356       .  S
C1089      C1090   1.405       .  A
C1089      C1094   1.393       .  A
C1089      H1096   1.084       .  S
C1091      C1092   1.403       .  A
C1091      F1098   1.357       .  S
C1092      H1097   1.083       .  S
C1093      C1094   1.408       .  A
C1094      F1095   1.358       .  S
C1099      C1104   1.392       .  A
C1099      H1106   1.083       .  S
C1100      C1101   1.412   1_554  A
C1101      C1102   1.405       .  A
C1101      F1108   1.357       .  S
C1102      H1107   1.082       .  S
C1103      C1104   1.413       .  A
C1104      F1105   1.358       .  S
C1109      C1114   1.395       .  A
C1109      H1116   1.083       .  S
C1110      C1111   1.415       .  A
C1111      C1112   1.402       .  A
C1111      F1118   1.357       .  S
C1112      C1113   1.403       .  A
C1112      H1117   1.083       .  S
C1114      F1115   1.358       .  S
C1119      C1124   1.393       .  A
C1119      H1126   1.083       .  S
C1120      C1121   1.410       .  A
C1121      C1122   1.404       .  A
C1121      F1128   1.356       .  S
C1122      C1123   1.408       .  A
C1122      H1127   1.083       .  S
C1124      F1125   1.358       .  S
C1129      C1412   1.412       .  A
C1129      C1134   1.423       .  A
C1129      C1684   1.493       .  S
C1130      C1411   1.412       .  A
C1130      C1131   1.394       .  A
C1130      H1135   1.084       .  S
C1131      C1132   1.401       .  A
C1131      C1140   1.484       .  S
C1132      C1415   1.411       .  A
C1132      H1136   1.082       .  S
C1133      C1414   1.411       .  A
C1133      C1134   1.415       .  A
C1133      C1158   1.516       .  S
C1134      H1137   1.080       .  S
C1138      C1139   1.414   1_554  A
C1138      C1143   1.426       .  A
C1138      C1395   1.488       .  S
C1139      C1140   1.390       .  A
C1139      H1144   1.083       .  S
C1140      C1141   1.391   1_556  A
C1141      C1142   1.408       .  A
C1141      H1145   1.075       .  S
C1142      C1143   1.414       .  A
C1142      C1149   1.517       .  S
C1143      H1146   1.082       .  S
C1147      C1148   1.425       .  A
C1147      C1434   1.411       .  A
C1147      C1385   1.493       .  S
C1148      C1149   1.418       .  A
C1148      H1153   1.081       .  S
C1149      C1150   1.411       .  A
C1150      C1433   1.401       .  A
C1150      H1154   1.082       .  S
C1151      C1432   1.401       .  A
C1151      C1152   1.393       .  A
C1151      C1160   1.481       .  S
C1152      C1429   1.411       .  A
C1152      H1155   1.084       .  S
C1156      C1157   1.424       .  A
C1156      C1161   1.412       .  A
C1156      C1372   1.484       .  S
C1157      C1158   1.415       .  A
C1157      H1162   1.082       .  S
C1158      C1159   1.409       .  A
C1159      C1160   1.391       .  A
C1159      H1163   1.076       .  S
C1160      C1161   1.389       .  A
C1161      H1164   1.084       .  S
C1165      C1166   1.430       .  A
C1165      C1170   1.428       .  A
C1165      C1365   1.491       .  S
C1166      C1167   1.402       .  A
C1166      H1171   1.080       .  S
C1167      C1168   1.395       .  A
C1167      C1176   1.504       .  S
C1168      C1169   1.390       .  A
C1168      H1172   1.061       .  S
C1169      C1170   1.399       .  A
C1169      C1194   1.498       .  S
C1170      H1173   1.083       .  S
C1174      C1175   1.429       .  A
C1174      C1179   1.426       .  A
C1174      C1352   1.489       .  S
C1175      C1176   1.402       .  A
C1175      H1180   1.081       .  S
C1176      C1177   1.395       .  A
C1177      C1178   1.391       .  A
C1177      H1181   1.060       .  S
C1178      C1179   1.399       .  A
C1178      C1185   1.498       .  S
C1179      H1182   1.083       .  S
C1183      C1184   1.424       .  A
C1183      C1188   1.417       .  A
C1183      C1342   1.485       .  S
C1184      C1185   1.402       .  A
C1184      H1189   1.081       .  S
C1185      C1186   1.401       .  A
C1186      C1187   1.397       .  A
C1186      H1190   1.069       .  S
C1187      C1188   1.395       .  A
C1187      C1196   1.486       .  S
C1188      H1191   1.083       .  S
C1192      C1193   1.424       .  A
C1192      C1197   1.417       .  A
C1192      C1332   1.483       .  S
C1193      C1194   1.403       .  A
C1193      H1198   1.081       .  S
C1194      C1195   1.402       .  A
C1195      C1196   1.397       .  A
C1195      H1199   1.069       .  S
C1196      C1197   1.393       .  A
C1197      H1200   1.084       .  S
C1201      C1202   1.422       .  A
C1201      C1206   1.425       .  A
C1201      C1322   1.475       .  S
C1202      C1203   1.401       .  A
C1202      H1207   1.083       .  S
C1203      C1204   1.399       .  A
C1203      C1214   1.506       .  S
C1204      C1205   1.402       .  A
C1204      H1208   1.062       .  S
C1205      C1206   1.406       .  A
C1205      C1221   1.510       .  S
C1206      H1209   1.083       .  S
C1210      C1211   1.421       .  A
C1210      C1215   1.422       .  A
C1210      C1312   1.473       .  S
C1211      C1212   1.401       .  A
C1211      H1216   1.083       .  S
C1212      C1213   1.400       .  A
C1212      C1230   1.504       .  S
C1213      C1214   1.399       .  A
C1213      H1217   1.062       .  S
C1214      C1215   1.405       .  A
C1215      H1218   1.083       .  S
C1219      C1220   1.430       .  A
C1219      C1224   1.425       .  A
C1219      C1305   1.484       .  S
C1220      C1221   1.407       .  A
C1220      H1225   1.082       .  S
C1221      C1222   1.395       .  A
C1222      C1223   1.395       .  A
C1222      H1226   1.057       .  S
C1223      C1224   1.399       .  A
C1223      C1232   1.505       .  S
C1224      H1227   1.083       .  S
C1228      C1229   1.430       .  A
C1228      C1233   1.430       .  A
C1228      C1292   1.496       .  S
C1229      C1230   1.403       .  A
C1229      H1234   1.083       .  S
C1230      C1231   1.393       .  A
C1231      C1232   1.395       .  A
C1231      H1235   1.060       .  S
C1232      C1233   1.402       .  A
C1233      H1236   1.080       .  S
O1237      C1248   1.291       .  A
O1237     Eu1837   2.454   1_556  S
O1238      C1249   1.290       .  A
O1238     Eu1836   2.449       .  S
O1239      C1250   1.291       .  A
O1239     Eu1527   2.460       .  S
O1240      C1251   1.293       .  A
O1240     Eu1245   2.465       .  S
O1241      C1251   1.292       .  A
O1241     Eu1839   2.462       .  S
O1242      C1250   1.292       .  A
O1242     Eu1838   2.464       .  S
O1243      C1249   1.294       .  A
O1243     Eu1527   2.468       .  S
O1244      C1248   1.293       .  A
Eu1245     O1521   2.460   1_554  S
Eu1245     O1525   2.468       .  S
Eu1245     O1819   2.343       .  S
Eu1245     O2093   2.363   1_554  S
Eu1245     O1810   2.361       .  S
Eu1245     O2099   2.340   1_554  S
O1246     Eu1809   2.362   1_545  S
O1246     Eu1275   2.357       .  S
O1246     Eu1554   2.360   1_554  S
O1247     Eu2091   2.363   1_545  S
O1247     Eu1274   2.355       .  S
C1248      C1405   1.483       .  S
C1249      C1375   1.487       .  S
C1250      C1315   1.468       .  S
C1251      C1295   1.485       .  S
H1252      O1253   0.965       .  S
O1253     Eu2091   2.341   1_545  S
O1253     Eu1274   2.346       .  S
O1253     Eu1272   2.342       .  S
H1254      O1255   0.957       .  S
O1255     Eu1809   2.331   1_545  S
O1255     Eu1275   2.334       .  S
O1256      C1279   1.290       .  A
O1256     Eu1272   2.454       .  S
O1257      C1280   1.289       .  A
O1257     Eu1273   2.446       .  S
O1258      C1281   1.292       .  A
O1258     Eu1274   2.455       .  S
O1259      C1282   1.287       .  A
O1259     Eu1275   2.431       .  S
O1260      C1283   1.288       .  A
O1261      C1284   1.290       .  A
O1262      C1285   1.292       .  A
O1262     Eu1276   2.467       .  S
O1263      C1286   1.292       .  A
O1263     Eu1558   2.464   1_554  S
O1264      C1285   1.291       .  A
O1264     Eu1274   2.461       .  S
O1265      C1286   1.291       .  A
O1265     Eu1275   2.462       .  S
O1266      C1281   1.290       .  A
O1266     Eu1272   2.456       .  S
O1267      C1284   1.291       .  A
O1267     Eu1555   2.461       .  S
O1268      C1283   1.291       .  A
O1268     Eu1273   2.455       .  S
O1269      C1282   1.292       .  A
O1269     Eu1554   2.460   1_554  S
O1270      C1279   1.294       .  A
O1270     Eu1276   2.469       .  S
O1271      C1280   1.295       .  A
Eu1272     O1802   2.449   1_545  S
Eu1272     O1551   2.460       .  S
Eu1272     O1528   2.361       .  S
Eu1272     O1572   2.342       .  S
Eu1272     O1278   2.362       .  S
Eu1273     O1801   2.454   1_544  S
Eu1273     O1549   2.461   1_554  S
Eu1274     O1806   2.464   1_545  S
Eu1274     O1288   2.347       .  S
Eu1274     O1278   2.359       .  S
Eu1275     O1805   2.466   1_545  S
Eu1275     O1277   2.359       .  S
Eu1275     O1290   2.344       .  S
Eu1276     O1545   2.464       .  S
Eu1276     O1559   2.361       .  S
Eu1276     O1288   2.340       .  S
Eu1276     O1572   2.345       .  S
Eu1276     O1278   2.364       .  S
O1277     Eu1558   2.361   1_554  S
C1279      C1382   1.485       .  S
C1280      C1392   1.490       .  S
C1281      C1355   1.479       .  S
C1282      C1345   1.475       .  S
C1283      C1335   1.472       .  S
C1284      C1362   1.481       .  S
C1285      C1325   1.470       .  S
C1286      C1302   1.476       .  S
H1287      O1288   0.965       .  S
H1289      O1290   0.965       .  S
O1290     Eu1554   2.342   1_554  S
O1290     Eu1558   2.346   1_554  S
C1291      C1292   1.410       .  A
C1291      C1296   1.396       .  A
C1291      H1298   1.083       .  S
C1292      C1293   1.411       .  A
C1293      C1294   1.402       .  A
C1293      F1300   1.356       .  S
C1294      C1295   1.407       .  A
C1294      H1299   1.083       .  S
C1295      C1296   1.406       .  A
C1296      F1297   1.358       .  S
C1301      C1302   1.406       .  A
C1301      C1306   1.403       .  A
C1301      H1308   1.081       .  S
C1302      C1303   1.402       .  A
C1303      C1304   1.396       .  A
C1304      C1305   1.408       .  A
C1305      C1306   1.405       .  A
C1306      F1307   1.357       .  S
C1311      C1312   1.404       .  A
C1311      C1316   1.396       .  A
C1312      C1313   1.403       .  A
C1313      C1314   1.403       .  A
C1313      F1320   1.357       .  S
C1314      C1315   1.406       .  A
C1314      H1319   1.083       .  S
C1315      C1316   1.400       .  A
C1321      C1322   1.405       .  A
C1321      C1326   1.396       .  A
C1321      H1328   1.084       .  S
C1322      C1323   1.404       .  A
C1323      C1324   1.404       .  A
C1324      C1325   1.407       .  A
C1325      C1326   1.401       .  A
C1326      F1327   1.358       .  S
C1331      C1332   1.409       .  A
C1331      C1336   1.390       .  A
C1331      H1338   1.083       .  S
C1332      C1333   1.407       .  A
C1333      C1334   1.399       .  A
C1333      F1340   1.357       .  S
C1334      C1335   1.407       .  A
C1334      H1339   1.083       .  S
C1335      C1336   1.402       .  A
C1336      F1337   1.358       .  S
C1341      C1342   1.404       .  A
C1341      C1346   1.397       .  A
C1341      H1348   1.082       .  S
C1342      C1343   1.414       .  A
C1343      C1344   1.392       .  A
C1343      F1350   1.358       .  S
C1344      C1345   1.399       .  A
C1344      H1349   1.084       .  S
C1345      C1346   1.409       .  A
C1346      F1347   1.356       .  S
C1351      C1352   1.406       .  A
C1351      C1356   1.400       .  A
C1351      H1358   1.082       .  S
C1352      C1353   1.414       .  A
C1353      C1354   1.393       .  A
C1353      F1360   1.357       .  S
C1354      C1355   1.401       .  A
C1354      H1359   1.083       .  S
C1355      C1356   1.409       .  A
C1356      F1357   1.358       .  S
C1361      C1362   1.407       .  A
C1361      C1366   1.401       .  A
C1361      H1368   1.083       .  S
C1362      C1363   1.405       .  A
C1363      C1364   1.392       .  A
C1363      F1370   1.358       .  S
C1364      C1365   1.409       .  A
C1364      H1369   1.083       .  S
C1365      C1366   1.410       .  A
C1366      F1367   1.356       .  S
C1371      C1372   1.405       .  A
C1371      C1376   1.393       .  A
C1371      H1378   1.084       .  S
C1372      C1655   1.405       .  A
C1373      C1654   1.405   1_554  A
C1373      C1374   1.403       .  A
C1373      F1380   1.357       .  S
C1374      C1657   1.411   1_554  A
C1374      H1379   1.083       .  S
C1375      C1656   1.411       .  A
C1375      C1376   1.408       .  A
C1376      F1377   1.358       .  S
C1381      C1664   1.401       .  A
C1381      C1386   1.392       .  A
C1381      H1388   1.083       .  S
C1382      C1663   1.401       .  A
C1382      C1383   1.412       .  A
C1383      C1384   1.405       .  A
C1383      F1390   1.357       .  S
C1384      C1667   1.407       .  A
C1384      H1389   1.082       .  S
C1385      C1666   1.407   1_554  A
C1385      C1386   1.413       .  A
C1386      F1387   1.358       .  S
C1391      C1674   1.404       .  A
C1391      C1396   1.395       .  A
C1391      H1398   1.083       .  S
C1392      C1673   1.404       .  A
C1392      C1393   1.415   1_554  A
C1393      C1394   1.402       .  A
C1393      F1400   1.357       .  S
C1394      C1395   1.403   1_556  A
C1394      H1399   1.083       .  S
C1395      C1678   1.411       .  A
C1396      C1677   1.410       .  A
C1396      F1397   1.358       .  S
C1401      C1684   1.408       .  A
C1401      C1406   1.393       .  A
C1401      H1408   1.083       .  S
C1402      C1683   1.408       .  A
C1402      C1403   1.410   1_556  A
C1402      C1411   1.493       .  S
C1403      C1404   1.404       .  A
C1403      F1410   1.356       .  S
C1404      C1405   1.409   1_554  A
C1404      H1409   1.083       .  S
C1405      C1688   1.405       .  A
C1406      C1687   1.405       .  A
C1406      F1407   1.358       .  S
C1411      C1416   1.423       .  A
C1412      C1413   1.394       .  A
C1412      H1417   1.084       .  S
C1413      C1414   1.401       .  A
C1413      C1422   1.484       .  S
C1414      H1418   1.082       .  S
C1415      C1416   1.415       .  A
C1415      C1440   1.516       .  S
C1416      H1419   1.080       .  S
C1420      C1421   1.414       .  A
C1420      C1425   1.426       .  A
C1420      C1677   1.488       .  S
C1421      C1422   1.390       .  A
C1421      H1426   1.083       .  S
C1422      C1423   1.391       .  A
C1423      C1424   1.408       .  A
C1423      H1427   1.075       .  S
C1424      C1425   1.414       .  A
C1424      C1431   1.517       .  S
C1425      H1428   1.082       .  S
C1429      C1430   1.425       .  A
C1429      C1667   1.494       .  S
C1430      C1431   1.418       .  A
C1430      H1435   1.081       .  S
C1431      C1432   1.411       .  A
C1432      H1436   1.082       .  S
C1433      C1434   1.393       .  A
C1433      C1442   1.481       .  S
C1434      H1437   1.084       .  S
C1438      C1439   1.424       .  A
C1438      C1443   1.412   1_556  A
C1438      C1654   1.484       .  S
C1439      C1440   1.415       .  A
C1439      H1444   1.082       .  S
C1440      C1441   1.409       .  A
C1441      C1442   1.391   1_556  A
C1441      H1445   1.076       .  S
C1442      C1443   1.389       .  A
C1443      H1446   1.084       .  S
C1447      C1448   1.430       .  A
C1447      C1452   1.428       .  A
C1447      C1647   1.491       .  S
C1448      C1449   1.402       .  A
C1448      H1453   1.080       .  S
C1449      C1450   1.395       .  A
C1449      C1458   1.504       .  S
C1450      C1451   1.390       .  A
C1450      H1454   1.061       .  S
C1451      C1452   1.399       .  A
C1451      C1476   1.498       .  S
C1452      H1455   1.083       .  S
C1456      C1457   1.429       .  A
C1456      C1461   1.426       .  A
C1456      C1634   1.489       .  S
C1457      C1458   1.402       .  A
C1457      H1462   1.081       .  S
C1458      C1459   1.395       .  A
C1459      C1460   1.391       .  A
C1459      H1463   1.060       .  S
C1460      C1461   1.399       .  A
C1460      C1467   1.498       .  S
C1461      H1464   1.083       .  S
C1465      C1466   1.424       .  A
C1465      C1470   1.417       .  A
C1465      C1624   1.485       .  S
C1466      C1467   1.402       .  A
C1466      H1471   1.081       .  S
C1467      C1468   1.401       .  A
C1468      C1469   1.397       .  A
C1468      H1472   1.069       .  S
C1469      C1470   1.395       .  A
C1469      C1478   1.486       .  S
C1470      H1473   1.083       .  S
C1474      C1475   1.424       .  A
C1474      C1479   1.417       .  A
C1474      C1614   1.483       .  S
C1475      C1476   1.403       .  A
C1475      H1480   1.081       .  S
C1476      C1477   1.402       .  A
C1477      C1478   1.397       .  A
C1477      H1481   1.069       .  S
C1478      C1479   1.393       .  A
C1479      H1482   1.084       .  S
C1483      C1484   1.422       .  A
C1483      C1488   1.425       .  A
C1483      C1604   1.475       .  S
C1484      C1485   1.401       .  A
C1484      H1489   1.083       .  S
C1485      C1486   1.399       .  A
C1485      C1496   1.506       .  S
C1486      C1487   1.402       .  A
C1486      H1490   1.062       .  S
C1487      C1488   1.406       .  A
C1487      C1503   1.510       .  S
C1488      H1491   1.083       .  S
C1492      C1493   1.421       .  A
C1492      C1497   1.422       .  A
C1492      C1594   1.473       .  S
C1493      C1494   1.401       .  A
C1493      H1498   1.083       .  S
C1494      C1495   1.400       .  A
C1494      C1512   1.504       .  S
C1495      C1496   1.399       .  A
C1495      H1499   1.062       .  S
C1496      C1497   1.405       .  A
C1497      H1500   1.083       .  S
C1501      C1502   1.430       .  A
C1501      C1506   1.425       .  A
C1501      C1587   1.484       .  S
C1502      C1503   1.407       .  A
C1502      H1507   1.082       .  S
C1503      C1504   1.395       .  A
C1504      C1505   1.395       .  A
C1504      H1508   1.057       .  S
C1505      C1506   1.399       .  A
C1505      C1514   1.505       .  S
C1506      H1509   1.083       .  S
C1510      C1511   1.430       .  A
C1510      C1515   1.430       .  A
C1510      C1574   1.496       .  S
C1511      C1512   1.403       .  A
C1511      H1516   1.083       .  S
C1512      C1513   1.393       .  A
C1513      C1514   1.395       .  A
C1513      H1517   1.060       .  S
C1514      C1515   1.402       .  A
C1515      H1518   1.080       .  S
O1519      C1530   1.291       .  A
O1519     Eu2119   2.455       .  S
O1520      C1531   1.290       .  A
O1520     Eu2118   2.449   1_554  S
O1521      C1532   1.291       .  A
O1522      C1533   1.293       .  A
O1522     Eu1527   2.465       .  S
O1523      C1533   1.292       .  A
O1523     Eu2121   2.462       .  S
O1524      C1532   1.292       .  A
O1524     Eu2120   2.464       .  S
O1525      C1531   1.294       .  A
O1526      C1530   1.293       .  A
Eu1527     O2101   2.343       .  S
Eu1527     O1811   2.363       .  S
Eu1527     O2092   2.361       .  S
Eu1527     O1817   2.341       .  S
O1528     Eu2091   2.361   1_545  S
O1528     Eu1557   2.355       .  S
O1529     Eu1809   2.366   1_546  S
O1529     Eu1556   2.356       .  S
C1530      C1687   1.483       .  S
C1531      C1657   1.487   1_554  S
C1532      C1597   1.468       .  S
C1533      C1577   1.485       .  S
H1534      O1535   0.965       .  S
O1535     Eu1809   2.339   1_546  S
O1535     Eu1556   2.346       .  S
O1535     Eu1554   2.342       .  S
H1536      O1537   0.965   1_565  S
O1537     Eu2091   2.343   1_545  S
O1537     Eu1557   2.349       .  S
O1538      C1561   1.290       .  A
O1538     Eu1554   2.453       .  S
O1539      C1562   1.289       .  A
O1539     Eu1555   2.446       .  S
O1540      C1563   1.292       .  A
O1540     Eu1556   2.455       .  S
O1541      C1564   1.287       .  A
O1541     Eu1557   2.437       .  S
O1542      C1565   1.288       .  A
O1543      C1566   1.290       .  A
O1544      C1567   1.292       .  A
O1544     Eu1558   2.467       .  S
O1545      C1568   1.292       .  A
O1546      C1567   1.291       .  A
O1546     Eu1556   2.461       .  S
O1547      C1568   1.292       .  A
O1547     Eu1557   2.465       .  S
O1548      C1563   1.290       .  A
O1548     Eu1554   2.455       .  S
O1549      C1566   1.291       .  A
O1550      C1565   1.291       .  A
O1550     Eu1555   2.455       .  S
O1551      C1564   1.292       .  A
O1552      C1561   1.294       .  A
O1552     Eu1558   2.468       .  S
O1553      C1562   1.295       .  A
Eu1554     O2084   2.449   1_546  S
Eu1554     O1560   2.362       .  S
Eu1555     O2083   2.455   1_545  S
Eu1556     O2088   2.464   1_545  S
Eu1556     O1570   2.348       .  S
Eu1556     O1560   2.359       .  S
Eu1557     O2087   2.462   1_545  S
Eu1557     O1559   2.356       .  S
Eu1557     O1572   2.346       .  S
Eu1558     O1570   2.341       .  S
Eu1558     O1560   2.364       .  S
C1561      C1664   1.484   1_556  S
C1562      C1674   1.489       .  S
C1563      C1637   1.479       .  S
C1564      C1627   1.475       .  S
C1565      C1617   1.472       .  S
C1566      C1644   1.481       .  S
C1567      C1607   1.470       .  S
C1568      C1584   1.476       .  S
H1569      O1570   0.965       .  S
H1571      O1572   0.965       .  S
C1573      C1574   1.410       .  A
C1573      C1578   1.396       .  A
C1573      H1580   1.083       .  S
C1574      C1575   1.411       .  A
C1575      C1576   1.402       .  A
C1575      F1582   1.356       .  S
C1576      C1577   1.407       .  A
C1576      H1581   1.083       .  S
C1577      C1578   1.406       .  A
C1578      F1579   1.358       .  S
C1583      C1584   1.406       .  A
C1583      C1588   1.403       .  A
C1583      H1590   1.081       .  S
C1584      C1585   1.402       .  A
C1585      C1586   1.397       .  A
C1586      C1587   1.408       .  A
C1587      C1588   1.405       .  A
C1588      F1589   1.357       .  S
C1593      C1594   1.404       .  A
C1593      C1598   1.396       .  A
C1594      C1595   1.403       .  A
C1595      C1596   1.403       .  A
C1595      F1602   1.357       .  S
C1596      C1597   1.406       .  A
C1596      H1601   1.083       .  S
C1597      C1598   1.400       .  A
C1603      C1604   1.405       .  A
C1603      C1608   1.396       .  A
C1603      H1610   1.084       .  S
C1604      C1605   1.404       .  A
C1605      C1606   1.404       .  A
C1606      C1607   1.407       .  A
C1607      C1608   1.401       .  A
C1608      F1609   1.358       .  S
C1613      C1614   1.409       .  A
C1613      C1618   1.390       .  A
C1613      H1620   1.083       .  S
C1614      C1615   1.407       .  A
C1615      C1616   1.399       .  A
C1615      F1622   1.357       .  S
C1616      C1617   1.407       .  A
C1616      H1621   1.083       .  S
C1617      C1618   1.402       .  A
C1618      F1619   1.358       .  S
C1623      C1624   1.404       .  A
C1623      C1628   1.397       .  A
C1623      H1630   1.082       .  S
C1624      C1625   1.414       .  A
C1625      C1626   1.392       .  A
C1625      F1632   1.358       .  S
C1626      C1627   1.399       .  A
C1626      H1631   1.084       .  S
C1627      C1628   1.409       .  A
C1628      F1629   1.356       .  S
C1633      C1634   1.406       .  A
C1633      C1638   1.400       .  A
C1633      H1640   1.082       .  S
C1634      C1635   1.414       .  A
C1635      C1636   1.393       .  A
C1635      F1642   1.357       .  S
C1636      C1637   1.401       .  A
C1636      H1641   1.083       .  S
C1637      C1638   1.409       .  A
C1638      F1639   1.358       .  S
C1643      C1644   1.407       .  A
C1643      C1648   1.402       .  A
C1643      H1650   1.083       .  S
C1644      C1645   1.405       .  A
C1645      C1646   1.392       .  A
C1645      F1652   1.358       .  S
C1646      C1647   1.409       .  A
C1646      H1651   1.083       .  S
C1647      C1648   1.410       .  A
C1648      F1649   1.356       .  S
C1653      C1654   1.405       .  A
C1653      C1658   1.393       .  A
C1653      H1660   1.084       .  S
C1655      C1656   1.403       .  A
C1655      F1662   1.357       .  S
C1656      H1661   1.083       .  S
C1657      C1658   1.408       .  A
C1658      F1659   1.358       .  S
C1663      C1668   1.392       .  A
C1663      H1670   1.083       .  S
C1664      C1665   1.412   1_554  A
C1665      C1666   1.405       .  A
C1665      F1672   1.357       .  S
C1666      H1671   1.082       .  S
C1667      C1668   1.413       .  A
C1668      F1669   1.358       .  S
C1673      C1678   1.395       .  A
C1673      H1680   1.083       .  S
C1674      C1675   1.415       .  A
C1675      C1676   1.402       .  A
C1675      F1682   1.357       .  S
C1676      C1677   1.403       .  A
C1676      H1681   1.083       .  S
C1678      F1679   1.358       .  S
C1683      C1688   1.393       .  A
C1683      H1690   1.083       .  S
C1684      C1685   1.410       .  A
C1685      C1686   1.404       .  A
C1685      F1692   1.356       .  S
C1686      C1687   1.408       .  A
C1686      H1691   1.083       .  S
C1688      F1689   1.358       .  S
C1693      C1976   1.412       .  A
C1693      C1698   1.423       .  A
C1693      C2248   1.493       .  S
C1694      C1975   1.412       .  A
C1694      C1695   1.394       .  A
C1694      H1699   1.084       .  S
C1695      C1696   1.401       .  A
C1695      C1704   1.484       .  S
C1696      C1979   1.411       .  A
C1696      H1700   1.082       .  S
C1697      C1978   1.411       .  A
C1697      C1698   1.415       .  A
C1697      C1722   1.517       .  S
C1698      H1701   1.080       .  S
C1702      C1703   1.414   1_554  A
C1702      C1707   1.426       .  A
C1702      C1959   1.488       .  S
C1703      C1704   1.390       .  A
C1703      H1708   1.083       .  S
C1704      C1705   1.391   1_556  A
C1705      C1706   1.408       .  A
C1705      H1709   1.075       .  S
C1706      C1707   1.414       .  A
C1706      C1713   1.517       .  S
C1707      H1710   1.082       .  S
C1711      C1712   1.425       .  A
C1711      C1998   1.411       .  A
C1711      C1949   1.493       .  S
C1712      C1713   1.418       .  A
C1712      H1717   1.081       .  S
C1713      C1714   1.411       .  A
C1714      C1997   1.401       .  A
C1714      H1718   1.082       .  S
C1715      C1996   1.401       .  A
C1715      C1716   1.393       .  A
C1715      C1724   1.481       .  S
C1716      C1993   1.411       .  A
C1716      H1719   1.084       .  S
C1720      C1721   1.424       .  A
C1720      C1725   1.412       .  A
C1720      C1936   1.484       .  S
C1721      C1722   1.415       .  A
C1721      H1726   1.082       .  S
C1722      C1723   1.409       .  A
C1723      C1724   1.391       .  A
C1723      H1727   1.076       .  S
C1724      C1725   1.389       .  A
C1725      H1728   1.084       .  S
C1729      C1730   1.430       .  A
C1729      C1734   1.428       .  A
C1729      C1929   1.491       .  S
C1730      C1731   1.402       .  A
C1730      H1735   1.080       .  S
C1731      C1732   1.395       .  A
C1731      C1740   1.504       .  S
C1732      C1733   1.390       .  A
C1732      H1736   1.061       .  S
C1733      C1734   1.399       .  A
C1733      C1758   1.498       .  S
C1734      H1737   1.083       .  S
C1738      C1739   1.429       .  A
C1738      C1743   1.426       .  A
C1738      C1916   1.489       .  S
C1739      C1740   1.402       .  A
C1739      H1744   1.081       .  S
C1740      C1741   1.395       .  A
C1741      C1742   1.391       .  A
C1741      H1745   1.060       .  S
C1742      C1743   1.399       .  A
C1742      C1749   1.498       .  S
C1743      H1746   1.083       .  S
C1747      C1748   1.424       .  A
C1747      C1752   1.417       .  A
C1747      C1906   1.485       .  S
C1748      C1749   1.402       .  A
C1748      H1753   1.081       .  S
C1749      C1750   1.401       .  A
C1750      C1751   1.397       .  A
C1750      H1754   1.069       .  S
C1751      C1752   1.395       .  A
C1751      C1760   1.486       .  S
C1752      H1755   1.083       .  S
C1756      C1757   1.424       .  A
C1756      C1761   1.417       .  A
C1756      C1896   1.483       .  S
C1757      C1758   1.403       .  A
C1757      H1762   1.081       .  S
C1758      C1759   1.402       .  A
C1759      C1760   1.397       .  A
C1759      H1763   1.069       .  S
C1760      C1761   1.393       .  A
C1761      H1764   1.084       .  S
C1765      C1766   1.422       .  A
C1765      C1770   1.425       .  A
C1765      C1886   1.476       .  S
C1766      C1767   1.401       .  A
C1766      H1771   1.083       .  S
C1767      C1768   1.399       .  A
C1767      C1778   1.506       .  S
C1768      C1769   1.402       .  A
C1768      H1772   1.062       .  S
C1769      C1770   1.406       .  A
C1769      C1785   1.510       .  S
C1770      H1773   1.083       .  S
C1774      C1775   1.421       .  A
C1774      C1779   1.423       .  A
C1774      C1876   1.473       .  S
C1775      C1776   1.401       .  A
C1775      H1780   1.083       .  S
C1776      C1777   1.400       .  A
C1776      C1794   1.504       .  S
C1777      C1778   1.399       .  A
C1777      H1781   1.062       .  S
C1778      C1779   1.405       .  A
C1779      H1782   1.083       .  S
C1783      C1784   1.430       .  A
C1783      C1788   1.425       .  A
C1783      C1869   1.484       .  S
C1784      C1785   1.407       .  A
C1784      H1789   1.082       .  S
C1785      C1786   1.395       .  A
C1786      C1787   1.395       .  A
C1786      H1790   1.057       .  S
C1787      C1788   1.399       .  A
C1787      C1796   1.505       .  S
C1788      H1791   1.083       .  S
C1792      C1793   1.430       .  A
C1792      C1797   1.430       .  A
C1792      C1856   1.496       .  S
C1793      C1794   1.403       .  A
C1793      H1798   1.083       .  S
C1794      C1795   1.393       .  A
C1795      C1796   1.395       .  A
C1795      H1799   1.060       .  S
C1796      C1797   1.402       .  A
C1797      H1800   1.080       .  S
O1801      C1812   1.291       .  A
O1802      C1813   1.290       .  A
O1803      C1814   1.291       .  A
O1803     Eu2091   2.460       .  S
O1804      C1815   1.293       .  A
O1804     Eu1809   2.468       .  S
O1805      C1815   1.293       .  A
O1806      C1814   1.292       .  A
O1807      C1813   1.294       .  A
O1807     Eu2091   2.469       .  S
O1808      C1812   1.293       .  A
Eu1809     O2085   2.457   1_554  S
Eu1809     O2089   2.464       .  S
O1810     Eu1839   2.355       .  S
O1810     Eu2118   2.361   1_554  S
O1811     Eu1838   2.355       .  S
C1812      C1969   1.483       .  S
C1813      C1939   1.487       .  S
C1814      C1879   1.468       .  S
C1815      C1859   1.485       .  S
H1816      O1817   0.965       .  S
O1817     Eu1838   2.346       .  S
O1817     Eu1836   2.342       .  S
H1818      O1819   0.965       .  S
O1819     Eu1839   2.349       .  S
O1820      C1843   1.290       .  A
O1820     Eu1836   2.454       .  S
O1821      C1844   1.289       .  A
O1821     Eu1837   2.446       .  S
O1822      C1845   1.292       .  A
O1822     Eu1838   2.455       .  S
O1823      C1846   1.287       .  A
O1823     Eu1839   2.436       .  S
O1824      C1847   1.288       .  A
O1825      C1848   1.290       .  A
O1826      C1849   1.292       .  A
O1826     Eu1840   2.467       .  S
O1827      C1850   1.292       .  A
O1827     Eu2122   2.464   1_554  S
O1828      C1849   1.291       .  A
O1828     Eu1838   2.461       .  S
O1829      C1850   1.292       .  A
O1829     Eu1839   2.465       .  S
O1830      C1845   1.290       .  A
O1830     Eu1836   2.455       .  S
O1831      C1848   1.291       .  A
O1831     Eu2119   2.461       .  S
O1832      C1847   1.291       .  A
O1832     Eu1837   2.455       .  S
O1833      C1846   1.292       .  A
O1833     Eu2118   2.460   1_554  S
O1834      C1843   1.294       .  A
O1834     Eu1840   2.468       .  S
O1835      C1844   1.295       .  A
Eu1836     O2115   2.460       .  S
Eu1836     O2092   2.361       .  S
Eu1836     O2136   2.342       .  S
Eu1836     O1842   2.362       .  S
Eu1837     O2113   2.461   1_554  S
Eu1838     O1852   2.347       .  S
Eu1838     O1842   2.359       .  S
Eu1839     O1841   2.356       .  S
Eu1839     O1854   2.346       .  S
Eu1840     O2109   2.464       .  S
Eu1840     O2123   2.361       .  S
Eu1840     O1852   2.340       .  S
Eu1840     O2136   2.345       .  S
Eu1840     O1842   2.364       .  S
O1841     Eu2122   2.360   1_554  S
C1843      C1946   1.485       .  S
C1844      C1956   1.490       .  S
C1845      C1919   1.479       .  S
C1846      C1909   1.475       .  S
C1847      C1899   1.472       .  S
C1848      C1926   1.481       .  S
C1849      C1889   1.470       .  S
C1850      C1866   1.476       .  S
H1851      O1852   0.965       .  S
H1853      O1854   0.965       .  S
O1854     Eu2118   2.342   1_554  S
O1854     Eu2122   2.345   1_554  S
C1855      C1856   1.410       .  A
C1855      C1860   1.396       .  A
C1855      H1862   1.082       .  S
C1856      C1857   1.411       .  A
C1857      C1858   1.402       .  A
C1857      F1864   1.356       .  S
C1858      C1859   1.407       .  A
C1858      H1863   1.083       .  S
C1859      C1860   1.406       .  A
C1860      F1861   1.358       .  S
C1865      C1866   1.406       .  A
C1865      C1870   1.403       .  A
C1865      H1872   1.081       .  S
C1866      C1867   1.402       .  A
C1867      C1868   1.397       .  A
C1868      C1869   1.408       .  A
C1869      C1870   1.405       .  A
C1870      F1871   1.357       .  S
C1875      C1876   1.404       .  A
C1875      C1880   1.396       .  A
C1876      C1877   1.403       .  A
C1877      C1878   1.404       .  A
C1877      F1884   1.357       .  S
C1878      C1879   1.406       .  A
C1878      H1883   1.083       .  S
C1879      C1880   1.400       .  A
C1885      C1886   1.405       .  A
C1885      C1890   1.396       .  A
C1885      H1892   1.084       .  S
C1886      C1887   1.404       .  A
C1887      C1888   1.404       .  A
C1888      C1889   1.407       .  A
C1889      C1890   1.401       .  A
C1890      F1891   1.358       .  S
C1895      C1896   1.409       .  A
C1895      C1900   1.390       .  A
C1895      H1902   1.083       .  S
C1896      C1897   1.407       .  A
C1897      C1898   1.399       .  A
C1897      F1904   1.357       .  S
C1898      C1899   1.407       .  A
C1898      H1903   1.083       .  S
C1899      C1900   1.402       .  A
C1900      F1901   1.358       .  S
C1905      C1906   1.404       .  A
C1905      C1910   1.397       .  A
C1905      H1912   1.082       .  S
C1906      C1907   1.414       .  A
C1907      C1908   1.392       .  A
C1907      F1914   1.358       .  S
C1908      C1909   1.399       .  A
C1908      H1913   1.084       .  S
C1909      C1910   1.409       .  A
C1910      F1911   1.356       .  S
C1915      C1916   1.406       .  A
C1915      C1920   1.400       .  A
C1915      H1922   1.082       .  S
C1916      C1917   1.414       .  A
C1917      C1918   1.393       .  A
C1917      F1924   1.357       .  S
C1918      C1919   1.401       .  A
C1918      H1923   1.083       .  S
C1919      C1920   1.409       .  A
C1920      F1921   1.358       .  S
C1925      C1926   1.407       .  A
C1925      C1930   1.402       .  A
C1925      H1932   1.083       .  S
C1926      C1927   1.405       .  A
C1927      C1928   1.392       .  A
C1927      F1934   1.358       .  S
C1928      C1929   1.409       .  A
C1928      H1933   1.083       .  S
C1929      C1930   1.410       .  A
C1930      F1931   1.356       .  S
C1935      C1936   1.405       .  A
C1935      C1940   1.394       .  A
C1935      H1942   1.084       .  S
C1936      C2219   1.405       .  A
C1937      C2218   1.405   1_554  A
C1937      C1938   1.403       .  A
C1937      F1944   1.357       .  S
C1938      C2221   1.411   1_554  A
C1938      H1943   1.083       .  S
C1939      C2220   1.411       .  A
C1939      C1940   1.408       .  A
C1940      F1941   1.358       .  S
C1945      C2228   1.401       .  A
C1945      C1950   1.392       .  A
C1945      H1952   1.083       .  S
C1946      C2227   1.401       .  A
C1946      C1947   1.412       .  A
C1947      C1948   1.405       .  A
C1947      F1954   1.357       .  S
C1948      C2231   1.407       .  A
C1948      H1953   1.082       .  S
C1949      C2230   1.407   1_554  A
C1949      C1950   1.413       .  A
C1950      F1951   1.358       .  S
C1955      C2238   1.404       .  A
C1955      C1960   1.395       .  A
C1955      H1962   1.083       .  S
C1956      C2237   1.404       .  A
C1956      C1957   1.415   1_554  A
C1957      C1958   1.402       .  A
C1957      F1964   1.357       .  S
C1958      C1959   1.403   1_556  A
C1958      H1963   1.083       .  S
C1959      C2242   1.411       .  A
C1960      C2241   1.410       .  A
C1960      F1961   1.358       .  S
C1965      C2248   1.408       .  A
C1965      C1970   1.393       .  A
C1965      H1972   1.083       .  S
C1966      C2247   1.408       .  A
C1966      C1967   1.410   1_556  A
C1966      C1975   1.493       .  S
C1967      C1968   1.404       .  A
C1967      F1974   1.356       .  S
C1968      C1969   1.408   1_554  A
C1968      H1973   1.083       .  S
C1969      C2252   1.405       .  A
C1970      C2251   1.405       .  A
C1970      F1971   1.358       .  S
C1975      C1980   1.423       .  A
C1976      C1977   1.394       .  A
C1976      H1981   1.084       .  S
C1977      C1978   1.401       .  A
C1977      C1986   1.484       .  S
C1978      H1982   1.082       .  S
C1979      C1980   1.415       .  A
C1979      C2004   1.516       .  S
C1980      H1983   1.080       .  S
C1984      C1985   1.414       .  A
C1984      C1989   1.426       .  A
C1984      C2241   1.488       .  S
C1985      C1986   1.390       .  A
C1985      H1990   1.083       .  S
C1986      C1987   1.391       .  A
C1987      C1988   1.408       .  A
C1987      H1991   1.075       .  S
C1988      C1989   1.414       .  A
C1988      C1995   1.517       .  S
C1989      H1992   1.082       .  S
C1993      C1994   1.425       .  A
C1993      C2231   1.494       .  S
C1994      C1995   1.418       .  A
C1994      H1999   1.081       .  S
C1995      C1996   1.411       .  A
C1996      H2000   1.082       .  S
C1997      C1998   1.393       .  A
C1997      C2006   1.481       .  S
C1998      H2001   1.084       .  S
C2002      C2003   1.424       .  A
C2002      C2007   1.412   1_556  A
C2002      C2218   1.484       .  S
C2003      C2004   1.415       .  A
C2003      H2008   1.082       .  S
C2004      C2005   1.409       .  A
C2005      C2006   1.391   1_556  A
C2005      H2009   1.076       .  S
C2006      C2007   1.389       .  A
C2007      H2010   1.084       .  S
C2011      C2012   1.430       .  A
C2011      C2016   1.428       .  A
C2011      C2211   1.491       .  S
C2012      C2013   1.402       .  A
C2012      H2017   1.080       .  S
C2013      C2014   1.395       .  A
C2013      C2022   1.504       .  S
C2014      C2015   1.390       .  A
C2014      H2018   1.061       .  S
C2015      C2016   1.399       .  A
C2015      C2040   1.498       .  S
C2016      H2019   1.083       .  S
C2020      C2021   1.429       .  A
C2020      C2025   1.426       .  A
C2020      C2198   1.489       .  S
C2021      C2022   1.402       .  A
C2021      H2026   1.081       .  S
C2022      C2023   1.395       .  A
C2023      C2024   1.391       .  A
C2023      H2027   1.060       .  S
C2024      C2025   1.399       .  A
C2024      C2031   1.498       .  S
C2025      H2028   1.083       .  S
C2029      C2030   1.424       .  A
C2029      C2034   1.417       .  A
C2029      C2188   1.485       .  S
C2030      C2031   1.402       .  A
C2030      H2035   1.081       .  S
C2031      C2032   1.401       .  A
C2032      C2033   1.397       .  A
C2032      H2036   1.069       .  S
C2033      C2034   1.395       .  A
C2033      C2042   1.486       .  S
C2034      H2037   1.083       .  S
C2038      C2039   1.424       .  A
C2038      C2043   1.417       .  A
C2038      C2178   1.483       .  S
C2039      C2040   1.403       .  A
C2039      H2044   1.081       .  S
C2040      C2041   1.402       .  A
C2041      C2042   1.397       .  A
C2041      H2045   1.069       .  S
C2042      C2043   1.393       .  A
C2043      H2046   1.084       .  S
C2047      C2048   1.422       .  A
C2047      C2052   1.424       .  A
C2047      C2168   1.475       .  S
C2048      C2049   1.401       .  A
C2048      H2053   1.083       .  S
C2049      C2050   1.399       .  A
C2049      C2060   1.506       .  S
C2050      C2051   1.402       .  A
C2050      H2054   1.062       .  S
C2051      C2052   1.406       .  A
C2051      C2067   1.510       .  S
C2052      H2055   1.083       .  S
C2056      C2057   1.421       .  A
C2056      C2061   1.422       .  A
C2056      C2158   1.473       .  S
C2057      C2058   1.401       .  A
C2057      H2062   1.083       .  S
C2058      C2059   1.400       .  A
C2058      C2076   1.504       .  S
C2059      C2060   1.399       .  A
C2059      H2063   1.062       .  S
C2060      C2061   1.405       .  A
C2061      H2064   1.083       .  S
C2065      C2066   1.430       .  A
C2065      C2070   1.425       .  A
C2065      C2151   1.484       .  S
C2066      C2067   1.407       .  A
C2066      H2071   1.082       .  S
C2067      C2068   1.395       .  A
C2068      C2069   1.395       .  A
C2068      H2072   1.057       .  S
C2069      C2070   1.399       .  A
C2069      C2078   1.505       .  S
C2070      H2073   1.083       .  S
C2074      C2075   1.430       .  A
C2074      C2079   1.430       .  A
C2074      C2138   1.496       .  S
C2075      C2076   1.403       .  A
C2075      H2080   1.083       .  S
C2076      C2077   1.393       .  A
C2077      C2078   1.395       .  A
C2077      H2081   1.060       .  S
C2078      C2079   1.402       .  A
C2079      H2082   1.080       .  S
O2083      C2094   1.291       .  A
O2084      C2095   1.290       .  A
O2085      C2096   1.290       .  A
O2086      C2097   1.293       .  A
O2086     Eu2091   2.465       .  S
O2087      C2097   1.292       .  A
O2088      C2096   1.292       .  A
O2089      C2095   1.293       .  A
O2090      C2094   1.293       .  A
O2092     Eu2121   2.355       .  S
O2093     Eu2120   2.355       .  S
C2094      C2251   1.483       .  S
C2095      C2221   1.487   1_554  S
C2096      C2161   1.467       .  S
C2097      C2141   1.485       .  S
H2098      O2099   0.965       .  S
O2099     Eu2120   2.346       .  S
O2099     Eu2118   2.342       .  S
H2100      O2101   0.965       .  S
O2101     Eu2121   2.349       .  S
O2102      C2125   1.290       .  A
O2102     Eu2118   2.453       .  S
O2103      C2126   1.289       .  A
O2103     Eu2119   2.446       .  S
O2104      C2127   1.292       .  A
O2104     Eu2120   2.455       .  S
O2105      C2128   1.287       .  A
O2105     Eu2121   2.436       .  S
O2106      C2129   1.288       .  A
O2107      C2130   1.290       .  A
O2108      C2131   1.292       .  A
O2108     Eu2122   2.467       .  S
O2109      C2132   1.292       .  A
O2110      C2131   1.291       .  A
O2110     Eu2120   2.461       .  S
O2111      C2132   1.292       .  A
O2111     Eu2121   2.465       .  S
O2112      C2127   1.290       .  A
O2112     Eu2118   2.455       .  S
O2113      C2130   1.291       .  A
O2114      C2129   1.291       .  A
O2114     Eu2119   2.455       .  S
O2115      C2128   1.292       .  A
O2116      C2125   1.294       .  A
O2116     Eu2122   2.468       .  S
O2117      C2126   1.295       .  A
Eu2118     O2124   2.362       .  S
Eu2120     O2134   2.347       .  S
Eu2120     O2124   2.358       .  S
Eu2121     O2123   2.356       .  S
Eu2121     O2136   2.346       .  S
Eu2122     O2134   2.340       .  S
Eu2122     O2124   2.364       .  S
C2125      C2228   1.484   1_556  S
C2126      C2238   1.489       .  S
C2127      C2201   1.479       .  S
C2128      C2191   1.475       .  S
C2129      C2181   1.472       .  S
C2130      C2208   1.481       .  S
C2131      C2171   1.470       .  S
C2132      C2148   1.476       .  S
H2133      O2134   0.965       .  S
H2135      O2136   0.965       .  S
C2137      C2138   1.410       .  A
C2137      C2142   1.396       .  A
C2137      H2144   1.083       .  S
C2138      C2139   1.411       .  A
C2139      C2140   1.402       .  A
C2139      F2146   1.356       .  S
C2140      C2141   1.407       .  A
C2140      H2145   1.083       .  S
C2141      C2142   1.406       .  A
C2142      F2143   1.358       .  S
C2147      C2148   1.406       .  A
C2147      C2152   1.403       .  A
C2147      H2154   1.081       .  S
C2148      C2149   1.402       .  A
C2149      C2150   1.397       .  A
C2150      C2151   1.408       .  A
C2151      C2152   1.405       .  A
C2152      F2153   1.357       .  S
C2157      C2158   1.404       .  A
C2157      C2162   1.396       .  A
C2158      C2159   1.403       .  A
C2159      C2160   1.403       .  A
C2159      F2166   1.357       .  S
C2160      C2161   1.406       .  A
C2160      H2165   1.083       .  S
C2161      C2162   1.400       .  A
C2167      C2168   1.405       .  A
C2167      C2172   1.396       .  A
C2167      H2174   1.084       .  S
C2168      C2169   1.404       .  A
C2169      C2170   1.404       .  A
C2170      C2171   1.407       .  A
C2171      C2172   1.401       .  A
C2172      F2173   1.358       .  S
C2177      C2178   1.409       .  A
C2177      C2182   1.390       .  A
C2177      H2184   1.083       .  S
C2178      C2179   1.407       .  A
C2179      C2180   1.399       .  A
C2179      F2186   1.357       .  S
C2180      C2181   1.407       .  A
C2180      H2185   1.083       .  S
C2181      C2182   1.402       .  A
C2182      F2183   1.358       .  S
C2187      C2188   1.404       .  A
C2187      C2192   1.397       .  A
C2187      H2194   1.082       .  S
C2188      C2189   1.414       .  A
C2189      C2190   1.392       .  A
C2189      F2196   1.358       .  S
C2190      C2191   1.399       .  A
C2190      H2195   1.084       .  S
C2191      C2192   1.409       .  A
C2192      F2193   1.356       .  S
C2197      C2198   1.406       .  A
C2197      C2202   1.400       .  A
C2197      H2204   1.082       .  S
C2198      C2199   1.414       .  A
C2199      C2200   1.393       .  A
C2199      F2206   1.357       .  S
C2200      C2201   1.401       .  A
C2200      H2205   1.083       .  S
C2201      C2202   1.409       .  A
C2202      F2203   1.358       .  S
C2207      C2208   1.407       .  A
C2207      C2212   1.402       .  A
C2207      H2214   1.083       .  S
C2208      C2209   1.405       .  A
C2209      C2210   1.392       .  A
C2209      F2216   1.358       .  S
C2210      C2211   1.409       .  A
C2210      H2215   1.083       .  S
C2211      C2212   1.410       .  A
C2212      F2213   1.356       .  S
C2217      C2218   1.405       .  A
C2217      C2222   1.393       .  A
C2217      H2224   1.084       .  S
C2219      C2220   1.403       .  A
C2219      F2226   1.357       .  S
C2220      H2225   1.083       .  S
C2221      C2222   1.408       .  A
C2222      F2223   1.358       .  S
C2227      C2232   1.392       .  A
C2227      H2234   1.083       .  S
C2228      C2229   1.412   1_554  A
C2229      C2230   1.405       .  A
C2229      F2236   1.357       .  S
C2230      H2235   1.082       .  S
C2231      C2232   1.413       .  A
C2232      F2233   1.358       .  S
C2237      C2242   1.395       .  A
C2237      H2244   1.083       .  S
C2238      C2239   1.415       .  A
C2239      C2240   1.402       .  A
C2239      F2246   1.357       .  S
C2240      C2241   1.403       .  A
C2240      H2245   1.083       .  S
C2242      F2243   1.358       .  S
C2247      C2252   1.393       .  A
C2247      H2254   1.083       .  S
C2248      C2249   1.410       .  A
C2249      C2250   1.404       .  A
C2249      F2256   1.356       .  S
C2250      C2251   1.408       .  A
C2250      H2255   1.083       .  S
C2252      F2253   1.358       .  S
