geometry optimzed in LAMMPS
_audit_creation_date              2020-11-30 
_audit_creation_method            'lammps2cif' 
_symmetry_space_group_name_H-M    'P1' 
_symmetry_Int_Tables_number       1 
_symmetry_cell_setting            triclinic 
loop_ 
_symmetry_equiv_pos_as_xyz 
  x,y,z 
_cell_length_a                    40.24108022835139 
_cell_length_b                    33.881398091066394 
_cell_length_c                    34.450971726864914 
_cell_angle_alpha                 89.33399310373582 
_cell_angle_beta                  91.19356142805734 
_cell_angle_gamma                 89.69510158801323 
loop_ 
_atom_site_label 
_atom_site_type_symbol 
_atom_site_fract_x 
_atom_site_fract_y 
_atom_site_fract_z 
_atom_site_charge 
O1          O  0.44872569  0.41811852  0.42420003    -0.74950
O2          O  0.40956788  0.44941121  0.46004303    -0.53860
C3          C  0.41852173  0.42561856  0.43338417     0.78780
O4          O  0.06501141  0.42188480  0.07905675    -0.59550
O5          O  0.10338737  0.45272502  0.04153040    -0.52580
C6          C  0.09505904  0.42988962  0.06973519     0.70790
O7          O  0.45284226  0.41504457  0.07641833    -0.74110
O8          O  0.41149367  0.44775458  0.04277723    -0.54670
C9          C  0.42200388  0.42239975  0.06827405     0.76800
O10         O  0.06071225  0.41527509  0.42486065    -0.59250
O11         O  0.10051322  0.45173502  0.45608003    -0.52370
C12         C  0.09108653  0.42465621  0.43254728     0.73390
Zr13       Zr  0.50508321  0.43660515  0.44270384     2.54710
O14         O  0.50388948  0.36481481  0.44211630    -0.79820
O15         O  0.00573711  0.44143284  0.37215417    -0.93230
Zr16       Zr  0.50823290  0.43530346  0.05712049     2.64680
O17         O  0.51114694  0.36363379  0.05338834    -0.98190
O18         O  0.00832616  0.43235664  0.12776855    -0.80250
O19         O  0.47405613  0.43462099  0.00047402    -0.83610
O20         O  0.03920711  0.43534975  0.99948903    -2.18320
O21         O  0.05727097  0.06989083  0.41878328    -0.67000
O22         O  0.09888749  0.03909711  0.45374875    -0.51560
C23         C  0.08813067  0.06255297  0.42654217     0.71770
O24         O  0.45279694  0.06998229  0.07861567    -0.59900
O25         O  0.41189535  0.03732959  0.04540127    -0.51880
C26         C  0.42216250  0.06200374  0.07121184     0.73580
O27         O  0.06358963  0.07264664  0.07432377    -0.71300
O28         O  0.10229565  0.03751959  0.04130682    -0.49980
C29         C  0.09368111  0.06373659  0.06588779     0.74960
O30         O  0.44540366  0.07226985  0.42528023    -0.66630
O31         O  0.40767628  0.03479113  0.45770464    -0.53830
C32         C  0.41550671  0.06187840  0.43316523     0.73340
Zr33       Zr  0.00255833  0.05316783  0.44254451     2.77540
O34         O  0.50304653  0.12495017  0.44551484    -0.97380
O35         O  0.49789026  0.05414310  0.37198067    -0.78200
Zr36       Zr  0.00744867  0.05166664  0.05706816     2.70070
O37         O  0.00604989  0.12348740  0.05681719    -0.79450
O38         O  0.51037728  0.04691883  0.12764084    -0.98530
Zr39       Zr  0.44112911  0.99342951  0.00144968     2.21500
Zr40       Zr  0.07033718  0.49517204  0.49837927     2.11130
O41         O  0.03751594  0.05405637  0.49879202    -2.47220
O42         O  0.47230089  0.05315633  0.50081194    -0.79240
O43         O  0.03632300  0.49553244  0.44086553    -0.71440
O44         O  0.47531131  0.99322690  0.05892680    -2.32390
O45         O  0.47139391  0.99427724  0.44250233    -2.28600
O46         O  0.04035987  0.49377183  0.05729289    -0.73190
H47         H  0.05372610  0.41255851  0.99966616     0.78800
H48         H  0.46198059  0.99276999  0.08191933     0.79890
H49         H  0.05141286  0.07720501  0.49826420     0.82120
H50         H  0.45655763  0.99437577  0.42010137     0.79720
H51         H  0.49809889  0.45761524  0.13556279     0.42760
H52         H  0.03019151  0.03025314  0.13345394     0.41730
H53         H  0.49483262  0.13077738  0.03188543     0.41410
H54         H  0.02480635  0.13155667  0.45763071     0.39340
H55         H  0.01175716  0.03161917  0.36379585     0.42470
H56         H  0.48645174  0.45845263  0.36497643     0.37260
H57         H  0.49750185  0.35717575  0.46875284     0.43370
H58         H  0.03320031  0.35790423  0.04248615     0.39790
H59         H  0.00487649  0.13372444  0.41813028     0.44710
H60         H  0.99935946  0.41480738  0.36321271     0.43430
H61         H  0.51307954  0.35460337  0.08078470     0.43570
H62         H  0.01686002  0.07365738  0.13615675     0.43920
C63         C  0.17712917  0.15618685  0.32908998    -0.02140
C64         C  0.18010379  0.32743546  0.34021685    -0.02140
C65         C  0.18435769  0.33422554  0.16784817    -0.02140
C66         C  0.18351038  0.16326063  0.15744713    -0.02140
C67         C  0.32688399  0.16298990  0.33763103    -0.02140
C68         C  0.33188278  0.15924434  0.16450622    -0.02140
C69         C  0.33330142  0.32801370  0.16526183    -0.02140
C70         C  0.32798973  0.33262871  0.33704209    -0.02140
C71         C  0.34228512  0.33239676  0.20998239    -0.05120
C72         C  0.33073192  0.36680523  0.22889905    -0.32550
C73         C  0.32880216  0.36889118  0.26956392     0.36700
C74         C  0.33938722  0.33655378  0.29347197    -0.05480
C75         C  0.35694227  0.30666312  0.27456650    -0.32450
C76         C  0.35859263  0.30416714  0.23449282     0.36610
H77         H  0.32046481  0.39114379  0.21178044     0.16980
O78         O  0.31369271  0.40114130  0.28545180    -0.59950
H79         H  0.36856972  0.28249071  0.28912357     0.16990
O80         O  0.37686298  0.27346745  0.22115050    -0.60040
H81         H  0.40042144  0.28028516  0.22678367     0.43990
H82         H  0.32977621  0.42303201  0.28281801     0.43940
C83         C  0.33723473  0.20139370  0.14540739    -0.05120
C84         C  0.36759914  0.22199474  0.15068576    -0.32550
C85         C  0.36836141  0.26382029  0.14807507     0.36700
C86         C  0.33791127  0.28498521  0.14824044    -0.05480
C87         C  0.31156868  0.26476638  0.12920797    -0.32450
C88         C  0.31246683  0.22349476  0.12528558     0.36610
H89         H  0.38994240  0.20639234  0.15972348     0.16980
O90         O  0.39815580  0.28307467  0.15124127    -0.59950
H91         H  0.29053337  0.28068362  0.11663713     0.16990
O92         O  0.29313754  0.20664560  0.09697691    -0.60040
H93         H  0.30519004  0.21094401  0.07247825     0.43990
H94         H  0.40673296  0.28408847  0.12448782     0.43940
C95         C  0.34215250  0.16168777  0.29454820    -0.05120
C96         C  0.34054518  0.19648375  0.27120834    -0.32550
C97         C  0.33626574  0.19606591  0.23088489     0.36700
C98         C  0.34217932  0.16169008  0.20914237    -0.05480
C99         C  0.34985589  0.12739237  0.23179178    -0.32450
C100        C  0.35064323  0.12723262  0.27299886     0.36610
H101        H  0.33600518  0.22484298  0.28364319     0.16980
O102        O  0.32044272  0.22806441  0.21443242    -0.59950
H103        H  0.35283508  0.09931657  0.21756352     0.16990
O104        O  0.36161057  0.09322879  0.29052360    -0.60040
H105        H  0.38589678  0.09681666  0.29443043     0.43990
H106        H  0.29642368  0.22170495  0.21503234     0.43940
C107        C  0.33101955  0.20637808  0.35274989    -0.05120
C108        C  0.36185286  0.22663768  0.35051233    -0.32550
C109        C  0.36318492  0.26825769  0.35484244     0.36700
C110        C  0.33286668  0.28951203  0.35450957    -0.05480
C111        C  0.30610778  0.26855983  0.37081617    -0.32450
C112        C  0.30552809  0.22741962  0.37114078     0.36610
H113        H  0.38416317  0.21047473  0.34341232     0.16980
O114        O  0.39295074  0.28821598  0.35422515    -0.59950
H115        H  0.28491195  0.28385233  0.38200954     0.16990
O116        O  0.27989678  0.20847478  0.38884370    -0.60040
H117        H  0.28789546  0.20317871  0.41581857     0.43990
H118        H  0.40846423  0.27312037  0.33793805     0.43940
C119        C  0.22063241  0.14796421  0.15925849    -0.05120
C120        C  0.23847067  0.14666942  0.19467333    -0.32550
C121        C  0.27287645  0.14302594  0.19715646     0.36700
C122        C  0.29324618  0.14523089  0.16333760    -0.05480
C123        C  0.27473302  0.13704498  0.12853498    -0.32450
C124        C  0.23946601  0.13898198  0.12606411     0.36610
H125        H  0.22655983  0.14989759  0.22213474     0.16980
O126        O  0.28504608  0.13697200  0.23398169    -0.59950
H127        H  0.28628800  0.13152945  0.10161128     0.16990
O128        O  0.22425938  0.13602175  0.09021744    -0.60040
H129        H  0.22548376  0.16278039  0.07838053     0.43990
H130        H  0.28188099  0.10842424  0.23946737     0.43940
C131        C  0.18145631  0.20800583  0.14375172    -0.05120
C132        C  0.15056436  0.22911805  0.14439461    -0.32550
C133        C  0.14964760  0.27104121  0.14452961     0.36700
C134        C  0.17966913  0.29208035  0.14898043    -0.05480
C135        C  0.20701606  0.27226589  0.13337639    -0.32450
C136        C  0.20953237  0.23158082  0.13549448     0.36610
H137        H  0.12749619  0.21314597  0.14729240     0.16980
O138        O  0.11976187  0.29052923  0.14096983    -0.59950
H139        H  0.22919066  0.28770144  0.12492080     0.16990
O140        O  0.24090865  0.21703221  0.13512974    -0.60040
H141        H  0.25061509  0.22288449  0.16116276     0.43990
H142        H  0.11722813  0.29710448  0.11294208     0.43940
C143        C  0.29466799  0.33698419  0.16461786    -0.05120
C144        C  0.27655113  0.31230896  0.18926655    -0.32550
C145        C  0.24250025  0.31541841  0.19402555     0.36700
C146        C  0.22320949  0.34143635  0.17013371    -0.05480
C147        C  0.24094520  0.36936715  0.14774624    -0.32450
C148        C  0.27631577  0.36782362  0.14538504     0.36610
H149        H  0.28964816  0.28983601  0.20577750     0.16980
O150        O  0.22724939  0.29094357  0.22034053    -0.59950
H151        H  0.22769187  0.39229893  0.13168765     0.16990
O152        O  0.29215417  0.39745844  0.12585143    -0.60040
H153        H  0.28437995  0.39556537  0.09841963     0.43990
H154        H  0.24282464  0.26957338  0.22865036     0.43940
C155        C  0.17042398  0.33759378  0.29586004    -0.05120
C156        C  0.14993924  0.31313841  0.27292572    -0.32550
C157        C  0.15107304  0.31250745  0.23214074     0.36700
C158        C  0.17312044  0.33751759  0.21170959    -0.05480
C159        C  0.18716314  0.36824583  0.23388357    -0.32450
C160        C  0.18677011  0.36835783  0.27455963     0.36610
H161        H  0.13200898  0.29403259  0.28533838     0.16980
O162        O  0.12717135  0.29107761  0.21339198    -0.59950
H163        H  0.20138595  0.39105266  0.21961172     0.16990
O164        O  0.20640056  0.39586940  0.29291899    -0.60040
H165        H  0.19823727  0.42214656  0.28380539     0.43990
H166        H  0.12857734  0.26378793  0.22400712     0.43940
C167        C  0.28945614  0.34045007  0.33529757    -0.05120
C168        C  0.27191612  0.36355295  0.36226978    -0.32550
C169        C  0.23686798  0.36065997  0.36574404     0.36700
C170        C  0.21848705  0.33442965  0.34170311    -0.05480
C171        C  0.23633482  0.31321623  0.31412413    -0.32450
C172        C  0.26990344  0.31778440  0.30911587     0.36610
H173        H  0.28506205  0.38330016  0.38143628     0.16980
O174        O  0.22156255  0.38212344  0.39375855    -0.59950
H175        H  0.22343615  0.29299634  0.29499368     0.16990
O176        O  0.28300053  0.29978441  0.27750831    -0.60040
H177        H  0.29837082  0.27923057  0.28753773     0.43990
H178        H  0.22049217  0.40953530  0.38338566     0.43940
C179        C  0.16558401  0.15623773  0.28487858    -0.05120
C180        C  0.16180450  0.19198885  0.26416945    -0.32550
C181        C  0.16903210  0.19460401  0.22507157     0.36700
C182        C  0.16933457  0.16089641  0.20053133    -0.05480
C183        C  0.16574421  0.12432637  0.22084830    -0.32450
C184        C  0.16694531  0.12177366  0.26194875     0.36610
H185        H  0.16298157  0.21991408  0.27855862     0.16980
O186        O  0.18450576  0.22876668  0.21509521    -0.59950
H187        H  0.16699129  0.09668264  0.20643573     0.16990
O188        O  0.17295252  0.08566197  0.27928430    -0.60040
H189        H  0.15318422  0.06935562  0.27309181     0.43990
H190        H  0.20840741  0.22176788  0.21700632     0.43940
C191        C  0.21571895  0.14690783  0.32749917    -0.05120
C192        C  0.23369109  0.17296953  0.30437401    -0.32550
C193        C  0.26767311  0.17807274  0.30807850     0.36700
C194        C  0.28810330  0.15365114  0.33251222    -0.05480
C195        C  0.27055200  0.12356197  0.35291814    -0.32450
C196        C  0.23524524  0.11929516  0.34964427     0.36610
H197        H  0.22095803  0.19508525  0.28688903     0.16980
O198        O  0.27912655  0.21182082  0.29167234    -0.59950
H199        H  0.28331195  0.10401199  0.37314976     0.16990
O200        O  0.22080340  0.08824373  0.36849863    -0.60040
H201        H  0.21733407  0.06792789  0.34835414     0.43990
H202        H  0.26727324  0.23309251  0.30534515     0.43940
C203        C  0.17269076  0.19839950  0.34720130    -0.05120
C204        C  0.19928893  0.21736738  0.36620240    -0.32550
C205        C  0.20016258  0.25833027  0.36926446     0.36700
C206        C  0.17484355  0.28208141  0.35114146    -0.05480
C207        C  0.14397900  0.26240279  0.34694863    -0.32450
C208        C  0.14271046  0.22068873  0.34458205     0.36610
H209        H  0.22008438  0.20059785  0.37784855     0.16980
O210        O  0.22521921  0.27447883  0.39130083    -0.59950
H211        H  0.12116141  0.27923182  0.34343963     0.16990
O212        O  0.11337229  0.20304862  0.33408683    -0.60040
H213        H  0.10293029  0.19571533  0.35894345     0.43990
H214        H  0.21796683  0.27209252  0.41854832     0.43940
C215        C  0.15594447  0.12807402  0.35448901    -0.05120
C216        C  0.12647583  0.11107527  0.33920545    -0.32550
C217        C  0.10550146  0.08838782  0.36197511     0.36700
C218        C  0.11245202  0.08285746  0.40176876    -0.05480
C219        C  0.14113465  0.09985254  0.41793235    -0.32450
C220        C  0.16214601  0.12321595  0.39510544     0.36610
H221        H  0.11811460  0.11641456  0.30966056     0.16980
O222        O  0.07755498  0.07251820  0.34496537    -0.59950
H223        H  0.14639335  0.09676599  0.44879890     0.16990
O224        O  0.18831641  0.14185897  0.41310062    -0.60040
H225        H  0.17825688  0.16357279  0.42803312     0.43990
H226        H  0.08415854  0.04548220  0.33738871     0.43810
C227        C  0.12132993  0.41140383  0.09421520    -0.05120
C228        C  0.14761394  0.39063876  0.07780630    -0.32550
C229        C  0.16903954  0.36705969  0.10118205     0.36700
C230        C  0.16487317  0.36469246  0.14206172    -0.05480
C231        C  0.13950260  0.38834674  0.15794304    -0.32450
C232        C  0.11815144  0.41115506  0.13461346     0.36610
H233        H  0.15037208  0.39078139  0.04658180     0.16980
O234        O  0.19330835  0.34553281  0.08355767    -0.59950
H235        H  0.13451977  0.38861340  0.18857827     0.16990
O236        O  0.09315895  0.43203434  0.15168349    -0.60040
H237        H  0.10260957  0.45849690  0.15670354     0.43990
H238        H  0.18145510  0.32416744  0.06962123     0.43940
C239        C  0.39782174  0.08331107  0.09492162    -0.05120
C240        C  0.40660872  0.09210995  0.13333497    -0.32550
C241        C  0.38757593  0.11791055  0.15532010     0.36700
C242        C  0.35592660  0.13191214  0.14112765    -0.05480
C243        C  0.35002938  0.12648200  0.10079122    -0.32450
C244        C  0.36942457  0.10124924  0.07841654     0.36610
H245        H  0.43001280  0.08136138  0.14565300     0.16980
O246        O  0.40271766  0.13284951  0.18799718    -0.59950
H247        H  0.33264308  0.14497304  0.08494958     0.16990
O248        O  0.36244190  0.09793707  0.03945003    -0.60040
H249        H  0.34585103  0.07648177  0.03746151     0.43990
H250        H  0.42068532  0.15028992  0.17871214     0.43940
C251        C  0.11981981  0.08695892  0.08499124    -0.05120
C252        C  0.12251995  0.12672765  0.07518768    -0.32550
C253        C  0.14494753  0.15120182  0.09492779     0.36700
C254        C  0.16300004  0.13672046  0.12853951    -0.05480
C255        C  0.16388431  0.09508757  0.13314036    -0.32450
C256        C  0.14191763  0.07053472  0.11265906     0.36610
H257        H  0.10777140  0.13872314  0.05108084     0.16980
O258        O  0.15197377  0.18685270  0.07764839    -0.59950
H259        H  0.18239991  0.08103113  0.15181012     0.16990
O260        O  0.14216751  0.03066945  0.12002741    -0.60040
H261        H  0.12699737  0.02688436  0.14206284     0.43990
H262        H  0.13044134  0.20098451  0.07393674     0.43940
C263        C  0.39267927  0.40630239  0.40988943    -0.05120
C264        C  0.36781370  0.38380176  0.42708595    -0.32550
C265        C  0.34582172  0.36125674  0.40419837     0.36700
C266        C  0.34827494  0.36143693  0.36301012    -0.05480
C267        C  0.37299293  0.38586424  0.34666981    -0.32450
C268        C  0.39470641  0.40778421  0.36947845     0.36610
H269        H  0.36647416  0.38209562  0.45840889     0.16980
O270        O  0.32386956  0.33677743  0.42253234    -0.59950
H271        H  0.37738073  0.38749547  0.31596974     0.16990
O272        O  0.41820255  0.43067139  0.35180512    -0.60040
H273        H  0.43558833  0.41193617  0.34340810     0.43990
H274        H  0.30975843  0.35404583  0.43849620     0.43940
C275        C  0.34525501  0.13490776  0.36855070    -0.05120
C276        C  0.34531185  0.09339302  0.36405535    -0.32550
C277        C  0.36714341  0.06850680  0.38556155     0.36700
C278        C  0.38859740  0.08458587  0.41368568    -0.05480
C279        C  0.38480102  0.12392247  0.42338907    -0.32450
C280        C  0.36243936  0.14856634  0.40297825     0.36610
H281        H  0.32878526  0.07988751  0.34300387     0.16980
O282        O  0.36849346  0.02902736  0.37739620    -0.59950
H283        H  0.39897350  0.13564957  0.44773473     0.16990
O284        O  0.35542849  0.18407922  0.41991257    -0.60040
H285        H  0.37687085  0.19825190  0.42267270     0.43990
H286        H  0.35265376  0.01640636  0.39531562     0.43940
C287        C  0.11679315  0.40234882  0.41258609    -0.05120
C288        C  0.12550385  0.36451676  0.42557907    -0.32550
C289        C  0.14732189  0.34083344  0.40456670     0.36700
C290        C  0.15974712  0.35420182  0.36805526    -0.05480
C291        C  0.15157855  0.39357947  0.35698433    -0.32450
C292        C  0.13101246  0.41748386  0.37903172     0.36610
H293        H  0.11532486  0.35316649  0.45235099     0.16980
O294        O  0.15717884  0.30563170  0.42128737    -0.59950
H295        H  0.15987121  0.40651153  0.33054478     0.16990
O296        O  0.12438217  0.45552590  0.36699103    -0.60040
H297        H  0.10483074  0.45366950  0.34912459     0.43990
H298        H  0.13679065  0.28940742  0.42312097     0.43940
C299        C  0.39755839  0.40114517  0.09192399    -0.05120
C300        C  0.40423278  0.39778767  0.13161236    -0.32550
C301        C  0.38417724  0.37559814  0.15583039     0.36700
C302        C  0.35514634  0.35624986  0.14074483    -0.05480
C303        C  0.34912963  0.35931552  0.10019003    -0.32450
C304        C  0.36943908  0.38229479  0.07611686     0.36610
H305        H  0.42605745  0.41182109  0.14413503     0.16980
O306        O  0.39502557  0.37187376  0.19367479    -0.59950
H307        H  0.32853107  0.34351991  0.08704308     0.16990
O308        O  0.36270578  0.38415738  0.03697953    -0.60040
H309        H  0.34655979  0.40618613  0.03344979     0.43990
H310        H  0.41229748  0.35086794  0.19370812     0.43940
O311        O  0.44872530  0.41811862  0.92419979    -0.74950
O312        O  0.40956746  0.44941124  0.96004282    -0.53860
C313        C  0.41852134  0.42561864  0.93338394     0.78780
O314        O  0.06501209  0.42188437  0.57905635    -0.59550
O315        O  0.10338799  0.45272468  0.54152997    -0.52580
C316        C  0.09505970  0.42988913  0.56973464     0.70790
O317        O  0.45284283  0.41504431  0.57641838    -0.74110
O318        O  0.41149421  0.44775432  0.54277732    -0.54670
C319        C  0.42200445  0.42239942  0.56827406     0.76800
O320        O  0.06071188  0.41527593  0.92485970    -0.59250
O321        O  0.10051285  0.45173495  0.95608012    -0.52370
C322        C  0.09108618  0.42465671  0.93254672     0.73390
Zr323      Zr  0.50508286  0.43660525  0.94270358     2.54710
O324        O  0.50388953  0.36481489  0.94211632    -0.79820
O325        O  0.00573636  0.44143268  0.87215392    -0.93230
Zr326      Zr  0.50823343  0.43530342  0.55712071     2.64680
O327        O  0.51114735  0.36363371  0.55338900    -0.98190
O328        O  0.00832698  0.43235721  0.62776879    -0.80250
O329        O  0.47405657  0.43462097  0.50047431    -0.83610
O330        O  0.03920759  0.43534972  0.49948920    -2.18320
O331        O  0.05727040  0.06989122  0.91878343    -0.67000
O332        O  0.09888695  0.03909739  0.95374878    -0.51560
C333        C  0.08813010  0.06255339  0.92654232     0.71770
O334        O  0.45279761  0.06998196  0.57861625    -0.59900
O335        O  0.41189599  0.03732938  0.54540174    -0.51880
C336        C  0.42216317  0.06200338  0.57121246     0.73580
O337        O  0.06359026  0.07264623  0.57432409    -0.71300
O338        O  0.10229619  0.03751925  0.54130692    -0.49980
C339        C  0.09368171  0.06373612  0.56588805     0.74960
O340        O  0.44540301  0.07227013  0.92528048    -0.66630
O341        O  0.40767571  0.03479116  0.95770473    -0.53830
C342        C  0.41550608  0.06187861  0.93316550     0.73340
Zr343      Zr  0.00255778  0.05316787  0.94254437     2.77540
O344        O  0.50304580  0.12495024  0.94551432    -0.97380
O345        O  0.49788964  0.05414263  0.87198055    -0.78200
Zr346      Zr  0.00744924  0.05166654  0.55706833     2.70070
O347        O  0.00605050  0.12348730  0.55681743    -0.79450
O348        O  0.51037797  0.04691863  0.62764100    -0.98530
Zr349      Zr  0.44112961  0.99342950  0.50144980     2.21500
Zr350      Zr  0.07033669  0.49517209  0.99837920     2.11130
O351        O  0.03751539  0.05405641  0.99879189    -2.47220
O352        O  0.47230031  0.05315637  0.00081180    -0.79240
O353        O  0.03632250  0.49553257  0.94086543    -0.71440
O354        O  0.47531187  0.99322683  0.55892690    -2.32390
O355        O  0.47139339  0.99427725  0.94250218    -2.28600
O356        O  0.04036047  0.49377177  0.55729304    -0.73190
H357        H  0.05372655  0.41255846  0.49966637     0.78800
H358        H  0.46198116  0.99276988  0.58191943     0.79890
H359        H  0.05141227  0.07720507  0.99826406     0.82120
H360        H  0.45655710  0.99437579  0.92010123     0.79720
H361        H  0.49809818  0.45761496  0.63556287     0.42760
H362        H  0.03019198  0.03025259  0.63345405     0.41730
H363        H  0.49483369  0.13077731  0.53188539     0.41410
H364        H  0.02480541  0.13155681  0.95763082     0.39340
H365        H  0.01175698  0.03161902  0.86379582     0.42470
H366        H  0.48645120  0.45845261  0.86497619     0.37260
H367        H  0.49750118  0.35717591  0.96875263     0.43370
H368        H  0.03320035  0.35790406  0.54248586     0.39790
H369        H  0.00487640  0.13372436  0.91812979     0.44710
H370        H  0.99935848  0.41480726  0.86321257     0.43430
H371        H  0.51308071  0.35460350  0.58078537     0.43570
H372        H  0.01686104  0.07365707  0.63615694     0.43920
C373        C  0.17712858  0.15618750  0.82909030    -0.02140
C374        C  0.18010341  0.32743607  0.84021587    -0.02140
C375        C  0.18435834  0.33422480  0.66784731    -0.02140
C376        C  0.18351104  0.16325988  0.65744754    -0.02140
C377        C  0.32688346  0.16299012  0.83763165    -0.02140
C378        C  0.33188340  0.15924370  0.66450708    -0.02140
C379        C  0.33330207  0.32801308  0.66526164    -0.02140
C380        C  0.32798939  0.33262894  0.83704178    -0.02140
C381        C  0.34228559  0.33239640  0.70998222    -0.05120
C382        C  0.33073223  0.36680493  0.72889862    -0.32550
C383        C  0.32880218  0.36889105  0.76956345     0.36700
C384        C  0.33938709  0.33655375  0.79347172    -0.05480
C385        C  0.35694230  0.30666301  0.77456655    -0.32450
C386        C  0.35859300  0.30416693  0.73449290     0.36610
H387        H  0.32046520  0.39114341  0.71177983     0.16980
O388        O  0.31369262  0.40114124  0.78545105    -0.59950
H389        H  0.36856965  0.28249067  0.78912385     0.16990
O390        O  0.37686364  0.27346735  0.72115085    -0.60040
H391        H  0.40042203  0.28028535  0.72678410     0.43990
H392        H  0.32977614  0.42303194  0.78281731     0.43940
C393        C  0.33723539  0.20139295  0.64540803    -0.05120
C394        C  0.36759980  0.22199399  0.65068637    -0.32550
C395        C  0.36836209  0.26381953  0.64807545     0.36700
C396        C  0.33791196  0.28498447  0.64824054    -0.05480
C397        C  0.31156941  0.26476553  0.62920810    -0.32450
C398        C  0.31246753  0.22349388  0.62528601     0.36610
H399        H  0.38994304  0.20639163  0.65972424     0.16980
O400        O  0.39815649  0.28307388  0.65124154    -0.59950
H401        H  0.29053414  0.28068270  0.61663707     0.16990
O402        O  0.29313819  0.20664450  0.59697753    -0.60040
H403        H  0.30519052  0.21094295  0.57247876     0.43990
H404        H  0.40673230  0.28409047  0.62448754     0.43940
C405        C  0.34215232  0.16168782  0.79454900    -0.05120
C406        C  0.34054516  0.19648370  0.77120901    -0.32550
C407        C  0.33626613  0.19606570  0.73088553     0.36700
C408        C  0.34217986  0.16168973  0.70914323    -0.05480
C409        C  0.34985637  0.12739216  0.73179285    -0.32450
C410        C  0.35064347  0.12723264  0.77299993     0.36610
H411        H  0.33600499  0.22484297  0.78364370     0.16980
O412        O  0.32044331  0.22806417  0.71443276    -0.59950
H413        H  0.35283573  0.09931630  0.71756477     0.16990
O414        O  0.36161114  0.09322908  0.79052491    -0.60040
H415        H  0.38589725  0.09681747  0.79443209     0.43990
H416        H  0.29642424  0.22170478  0.71503246     0.43940
C417        C  0.33101901  0.20637835  0.85275043    -0.05120
C418        C  0.36185237  0.22663786  0.85051306    -0.32550
C419        C  0.36318444  0.26825793  0.85484278     0.36700
C420        C  0.33286622  0.28951234  0.85450953    -0.05480
C421        C  0.30610721  0.26856030  0.87081606    -0.32450
C422        C  0.30552744  0.22742009  0.87114088     0.36610
H423        H  0.38416272  0.21047482  0.84341339     0.16980
O424        O  0.39295029  0.28821615  0.85422561    -0.59950
H425        H  0.28491138  0.28385295  0.88200922     0.16990
O426        O  0.27989598  0.20847543  0.88884369    -0.60040
H427        H  0.28789444  0.20317963  0.91581869     0.43990
H428        H  0.40846385  0.27312043  0.83793869     0.43940
C429        C  0.22063302  0.14796337  0.65925916    -0.05120
C430        C  0.23847119  0.14666891  0.69467406    -0.32550
C431        C  0.27287699  0.14302553  0.69715731     0.36700
C432        C  0.29324680  0.14523022  0.66333850    -0.05480
C433        C  0.27473372  0.13704398  0.62853590    -0.32450
C434        C  0.23946672  0.13898095  0.62606491     0.36610
H435        H  0.22656025  0.14989732  0.72213539     0.16980
O436        O  0.28504655  0.13697191  0.73398261    -0.59950
H437        H  0.28628877  0.13152815  0.60161230     0.16990
O438        O  0.22426020  0.13602046  0.59021820    -0.60040
H439        H  0.22548463  0.16277902  0.57838112     0.43990
H440        H  0.28188144  0.10842420  0.73946853     0.43940
C441        C  0.18145711  0.20800498  0.64375187    -0.05120
C442        C  0.15056515  0.22911721  0.64439419    -0.32550
C443        C  0.14964839  0.27104037  0.64452880     0.36700
C444        C  0.17966989  0.29207954  0.64897971    -0.05480
C445        C  0.20701692  0.27226493  0.63337608    -0.32450
C446        C  0.20953327  0.23157989  0.63549477     0.36610
H447        H  0.12749695  0.21314516  0.64729185     0.16980
O448        O  0.11976268  0.29052837  0.64096861    -0.59950
H449        H  0.22919158  0.28770039  0.62492053     0.16990
O450        O  0.24090958  0.21703129  0.63513077    -0.60040
H451        H  0.25061570  0.22288398  0.66116384     0.43990
H452        H  0.11722906  0.29710326  0.61294076     0.43940
C453        C  0.29466863  0.33698355  0.66461741    -0.05120
C454        C  0.27655173  0.31230853  0.68926624    -0.32550
C455        C  0.24250084  0.31541795  0.69402505     0.36700
C456        C  0.22321012  0.34143569  0.67013295    -0.05480
C457        C  0.24094585  0.36936625  0.64774523    -0.32450
C458        C  0.27631643  0.36782274  0.64538416     0.36610
H459        H  0.28964873  0.28983575  0.70577745     0.16980
O460        O  0.22724996  0.29094326  0.72034015    -0.59950
H461        H  0.22769253  0.39229780  0.63168629     0.16990
O462        O  0.29215484  0.39745729  0.62585018    -0.60040
H463        H  0.28438073  0.39556376  0.59841838     0.43990
H464        H  0.24282505  0.26957277  0.72864961     0.43940
C465        C  0.17042387  0.33759367  0.79585893    -0.05120
C466        C  0.14993959  0.31313777  0.77292463    -0.32550
C467        C  0.15107351  0.31250682  0.73213968     0.36700
C468        C  0.17312099  0.33751695  0.71170864    -0.05480
C469        C  0.18716346  0.36824540  0.73388258    -0.32450
C470        C  0.18676978  0.36835785  0.77455860     0.36610
H471        H  0.13200955  0.29403163  0.78533729     0.16980
O472        O  0.12717178  0.29107712  0.71339080    -0.59950
H473        H  0.20138627  0.39105226  0.71961076     0.16990
O474        O  0.20639915  0.39587028  0.79291828    -0.60040
H475        H  0.19823525  0.42214707  0.78380439     0.43990
H476        H  0.12857741  0.26378750  0.72400614     0.43940
C477        C  0.28945581  0.34045039  0.83529698    -0.05120
C478        C  0.27191570  0.36355382  0.86226867    -0.32550
C479        C  0.23686752  0.36066109  0.86574264     0.36700
C480        C  0.21848668  0.33443026  0.84170216    -0.05480
C481        C  0.23633456  0.31321641  0.81412357    -0.32450
C482        C  0.26990321  0.31778449  0.80911541     0.36610
H483        H  0.28506158  0.38330134  0.88143491     0.16980
O484        O  0.22156188  0.38212562  0.89375622    -0.59950
H485        H  0.22343596  0.29299625  0.79499333     0.16990
O486        O  0.28300042  0.29978417  0.77750810    -0.60040
H487        H  0.29837077  0.27923052  0.78753778     0.43990
H488        H  0.22049028  0.40953676  0.88338157     0.43940
C489        C  0.16558360  0.15623798  0.78487886    -0.05120
C490        C  0.16180406  0.19198890  0.76416941    -0.32550
C491        C  0.16903210  0.19460376  0.72507162     0.36700
C492        C  0.16933499  0.16089595  0.70053165    -0.05480
C493        C  0.16574460  0.12432606  0.72084887    -0.32450
C494        C  0.16694524  0.12177371  0.76194934     0.36610
H495        H  0.16298080  0.21991424  0.77855840     0.16980
O496        O  0.18450583  0.22876639  0.71509524    -0.59950
H497        H  0.16699205  0.09668221  0.70643658     0.16990
O498        O  0.17295238  0.08566218  0.77928526    -0.60040
H499        H  0.15318414  0.06935576  0.77309275     0.43990
H500        H  0.20840746  0.22176761  0.71700675     0.43940
C501        C  0.21571837  0.14690839  0.82749971    -0.05120
C502        C  0.23369060  0.17296983  0.80437436    -0.32550
C503        C  0.26767267  0.17807282  0.80807869     0.36700
C504        C  0.28810277  0.15365139  0.83251267    -0.05480
C505        C  0.27055135  0.12356249  0.85291885    -0.32450
C506        C  0.23524457  0.11929582  0.84964503     0.36610
H507        H  0.22095760  0.19508548  0.78688921     0.16980
O508        O  0.27912627  0.21182058  0.79167205    -0.59950
H509        H  0.28331124  0.10401264  0.87315065     0.16990
O510        O  0.22080264  0.08824465  0.86849970    -0.60040
H511        H  0.21733330  0.06792859  0.84835542     0.43990
H512        H  0.26727303  0.23309253  0.80534455     0.43940
C513        C  0.17269014  0.19840032  0.84720131    -0.05120
C514        C  0.19928833  0.21736822  0.86620232    -0.32550
C515        C  0.20016206  0.25833113  0.86926415     0.36700
C516        C  0.17484301  0.28208223  0.85114115    -0.05480
C517        C  0.14397841  0.26240370  0.84694859    -0.32450
C518        C  0.14270986  0.22068961  0.84458200     0.36610
H519        H  0.22008374  0.20059872  0.87784857     0.16980
O520        O  0.22521887  0.27447979  0.89130018    -0.59950
H521        H  0.12116090  0.27923283  0.84343920     0.16990
O522        O  0.11337169  0.20304951  0.83408678    -0.60040
H523        H  0.10292970  0.19571620  0.85894341     0.43990
H524        H  0.21796780  0.27209115  0.91854800     0.43940
C525        C  0.15594378  0.12807484  0.85448938    -0.05120
C526        C  0.12647525  0.11107591  0.83920575    -0.32550
C527        C  0.10550092  0.08838838  0.86197535     0.36700
C528        C  0.11245140  0.08285808  0.90176903    -0.05480
C529        C  0.14113386  0.09985347  0.91793273    -0.32450
C530        C  0.16214517  0.12321699  0.89510586     0.36610
H531        H  0.11811410  0.11641507  0.80966080     0.16980
O532        O  0.07755455  0.07251855  0.84496554    -0.59950
H533        H  0.14639246  0.09676703  0.94879930     0.16990
O534        O  0.18831541  0.14186026  0.91310110    -0.60040
H535        H  0.17825572  0.16357416  0.92803334     0.43990
H536        H  0.08415826  0.04548258  0.83738892     0.43810
C537        C  0.12133063  0.41140319  0.59421443    -0.05120
C538        C  0.14761438  0.39063776  0.57780539    -0.32550
C539        C  0.16903999  0.36705864  0.60118109     0.36700
C540        C  0.16487383  0.36469168  0.64206081    -0.05480
C541        C  0.13950350  0.38834629  0.65794220    -0.32450
C542        C  0.11815240  0.41115470  0.63461270     0.36610
H543        H  0.15037231  0.39078018  0.54658086     0.16980
O544        O  0.19330859  0.34553147  0.58355666    -0.59950
H545        H  0.13452080  0.38861320  0.68857745     0.16990
O546        O  0.09316018  0.43203437  0.65168282    -0.60040
H547        H  0.10261122  0.45849664  0.65670325     0.43990
H548        H  0.18145514  0.32416606  0.56962049     0.43940
C549        C  0.39782241  0.08331054  0.59492240    -0.05120
C550        C  0.40660938  0.09210928  0.63333580    -0.32550
C551        C  0.38757652  0.11790974  0.65532106     0.36700
C552        C  0.35592722  0.13191140  0.64112860    -0.05480
C553        C  0.35003002  0.12648134  0.60079216    -0.32450
C554        C  0.36942520  0.10124867  0.57841741     0.36610
H555        H  0.43001347  0.08136070  0.64565378     0.16980
O556        O  0.40271820  0.13284852  0.68799824    -0.59950
H557        H  0.33264371  0.14497241  0.58495054     0.16990
O558        O  0.36244250  0.09793659  0.53945090    -0.60040
H559        H  0.34585164  0.07648128  0.53746235     0.43990
H560        H  0.42068577  0.15028913  0.67871331     0.43940
C561        C  0.11982047  0.08695828  0.58499157    -0.05120
C562        C  0.12252107  0.12672687  0.57518767    -0.32550
C563        C  0.14494870  0.15120093  0.59492782     0.36700
C564        C  0.16300077  0.13671966  0.62853989    -0.05480
C565        C  0.16388470  0.09508680  0.63314106    -0.32450
C566        C  0.14191794  0.07053405  0.61265975     0.36610
H567        H  0.10777283  0.13872232  0.55108055     0.16980
O568        O  0.15197549  0.18685152  0.57764815    -0.59950
H569        H  0.18240012  0.08103029  0.65181101     0.16990
O570        O  0.14216743  0.03066883  0.62002842    -0.60040
H571        H  0.12699739  0.02688419  0.64206402     0.43990
H572        H  0.13044323  0.20098360  0.57393601     0.43940
C573        C  0.39267887  0.40630256  0.90988916    -0.05120
C574        C  0.36781310  0.38380218  0.92708563    -0.32550
C575        C  0.34582107  0.36125728  0.90419800     0.36700
C576        C  0.34827450  0.36143726  0.86300978    -0.05480
C577        C  0.37299261  0.38586442  0.84666950    -0.32450
C578        C  0.39470609  0.40778434  0.86947818     0.36610
H579        H  0.36647343  0.38209617  0.95840857     0.16980
O580        O  0.32386864  0.33677830  0.92253191    -0.59950
H581        H  0.37738049  0.38749557  0.81596946     0.16990
O582        O  0.41820231  0.43067145  0.85180489    -0.60040
H583        H  0.43558799  0.41193617  0.84340776     0.43990
H584        H  0.30975738  0.35404698  0.93849534     0.43940
C585        C  0.34525423  0.13490798  0.86855143    -0.05120
C586        C  0.34531104  0.09339326  0.86405598    -0.32550
C587        C  0.36714270  0.06850705  0.88556203     0.36700
C588        C  0.38859669  0.08458610  0.91368616    -0.05480
C589        C  0.38480014  0.12392263  0.92338982    -0.32450
C590        C  0.36243842  0.14856650  0.90297907     0.36610
H591        H  0.32878454  0.07988785  0.84300434     0.16980
O592        O  0.36849290  0.02902767  0.87739645    -0.59950
H593        H  0.39897256  0.13564967  0.94773556     0.16990
O594        O  0.35542734  0.18407928  0.91991345    -0.60040
H595        H  0.37686963  0.19825206  0.92267376     0.43990
H596        H  0.35265324  0.01640647  0.89531579     0.43940
C597        C  0.11679283  0.40234975  0.91258504    -0.05120
C598        C  0.12550609  0.36451902  0.92557966    -0.32550
C599        C  0.14732395  0.34083579  0.90456690     0.36700
C600        C  0.15974666  0.35420286  0.86805381    -0.05480
C601        C  0.15157532  0.39357922  0.85698089    -0.32450
C602        C  0.13100932  0.41748358  0.87902845     0.36610
H603        H  0.11532904  0.35316960  0.95235296     0.16980
O604        O  0.15718278  0.30563515  0.92128833    -0.59950
H605        H  0.15986551  0.40651014  0.83053962     0.16990
O606        O  0.12437643  0.45552443  0.86698588    -0.60040
H607        H  0.10482417  0.45366550  0.84912100     0.43990
H608        H  0.13679536  0.28940961  0.92312267     0.43940
C609        C  0.39755901  0.40114468  0.59192389    -0.05120
C610        C  0.40423322  0.39778743  0.63161231    -0.32550
C611        C  0.38417775  0.37559775  0.65583028     0.36700
C612        C  0.35514706  0.35624913  0.64074461    -0.05480
C613        C  0.34913058  0.35931446  0.60018975    -0.32450
C614        C  0.36944000  0.38229382  0.57611663     0.36610
H615        H  0.42605771  0.41182115  0.64413507     0.16980
O616        O  0.39502596  0.37187357  0.69367474    -0.59950
H617        H  0.32853223  0.34351854  0.58704273     0.16990
O618        O  0.36270698  0.38415603  0.53697923    -0.60040
H619        H  0.34656079  0.40618454  0.53344917     0.43990
H620        H  0.41229792  0.35086780  0.69370823     0.43940
O621        O  0.44872570  0.91811853  0.42419996    -0.74950
O622        O  0.40956790  0.94941122  0.46004297    -0.53860
C623        C  0.41852175  0.92561857  0.43338411     0.78780
O624        O  0.06501144  0.92188477  0.07905673    -0.59550
O625        O  0.10338740  0.95272503  0.04153042    -0.52580
C626        C  0.09505907  0.92988960  0.06973518     0.70790
O627        O  0.45284223  0.91504456  0.07641837    -0.74110
O628        O  0.41149364  0.94775458  0.04277730    -0.54670
C629        C  0.42200386  0.92239974  0.06827411     0.76800
O630        O  0.06071216  0.91527503  0.42486065    -0.59250
O631        O  0.10051314  0.95173504  0.45607991    -0.52370
C632        C  0.09108644  0.92465618  0.43254722     0.73390
Zr633      Zr  0.50508323  0.93660517  0.44270379     2.54710
O634        O  0.50388949  0.86481482  0.44211620    -0.79820
O635        O  0.00573704  0.94143292  0.37215415    -0.93230
Zr636      Zr  0.50823287  0.93530346  0.05712054     2.64680
O637        O  0.51114691  0.86363379  0.05338839    -0.98190
O638        O  0.00832623  0.93235671  0.12776858    -0.80250
O639        O  0.47405610  0.93462099  0.00047408    -0.83610
O640        O  0.03920715  0.93534977  0.99948906    -2.18320
O641        O  0.05727100  0.56989077  0.41878324    -0.67000
O642        O  0.09888752  0.53909708  0.45374874    -0.51560
C643        C  0.08813070  0.56255291  0.42654214     0.71770
O644        O  0.45279697  0.56998227  0.07861565    -0.59900
O645        O  0.41189538  0.53732957  0.04540124    -0.51880
C646        C  0.42216254  0.56200371  0.07121182     0.73580
O647        O  0.06358964  0.57264658  0.07432375    -0.71300
O648        O  0.10229564  0.53751954  0.04130677    -0.49980
C649        C  0.09368111  0.56373653  0.06588775     0.74960
O650        O  0.44540365  0.57226984  0.42528026    -0.66630
O651        O  0.40767626  0.53479113  0.45770467    -0.53830
C652        C  0.41550670  0.56187840  0.43316526     0.73340
Zr653      Zr  0.00255837  0.55316780  0.44254451     2.77540
O654        O  0.50304653  0.62495015  0.44551480    -0.97380
O655        O  0.49789022  0.55414303  0.37198069    -0.78200
Zr656      Zr  0.00744866  0.55166663  0.05706813     2.70070
O657        O  0.00604991  0.62348739  0.05681715    -0.79450
O658        O  0.51037731  0.54691885  0.12764080    -0.98530
Zr659      Zr  0.44112914  0.49342951  0.00144963     2.21500
Zr660      Zr  0.07033715  0.99517202  0.49837923     2.11130
O661        O  0.03751596  0.55405638  0.49879202    -2.47220
O662        O  0.47230087  0.55315633  0.50081196    -0.79240
O663        O  0.03632295  0.99553245  0.44086550    -0.71440
O664        O  0.47531134  0.49322690  0.05892675    -2.32390
O665        O  0.47139389  0.49427723  0.44250236    -2.28600
O666        O  0.04035989  0.99377185  0.05729292    -0.73190
H667        H  0.05372615  0.91255854  0.99966619     0.78800
H668        H  0.46198062  0.49276999  0.08191927     0.79890
H669        H  0.05141288  0.57720502  0.49826420     0.82120
H670        H  0.45655761  0.49437575  0.42010141     0.79720
H671        H  0.49809887  0.95761523  0.13556284     0.42760
H672        H  0.03019151  0.53025314  0.13345393     0.41730
H673        H  0.49483262  0.63077737  0.03188536     0.41410
H674        H  0.02480642  0.63155664  0.45763065     0.39340
H675        H  0.01175715  0.53161913  0.36379585     0.42470
H676        H  0.48645176  0.95845265  0.36497638     0.37260
H677        H  0.49750194  0.85717575  0.46875276     0.43370
H678        H  0.03320025  0.85790422  0.04248605     0.39790
H679        H  0.00487650  0.63372442  0.41813026     0.44710
H680        H  0.99935940  0.91480747  0.36321267     0.43430
H681        H  0.51307951  0.85460337  0.08078474     0.43570
H682        H  0.01686003  0.57365739  0.13615673     0.43920
C683        C  0.17712919  0.65618675  0.32908991    -0.02140
C684        C  0.18010370  0.82743537  0.34021684    -0.02140
C685        C  0.18435767  0.83422542  0.16784815    -0.02140
C686        C  0.18351042  0.66326052  0.15744706    -0.02140
C687        C  0.32688399  0.66298995  0.33763104    -0.02140
C688        C  0.33188279  0.65924425  0.16450621    -0.02140
C689        C  0.33330139  0.82801362  0.16526183    -0.02140
C690        C  0.32798965  0.83262874  0.33704209    -0.02140
C691        C  0.34228507  0.83239669  0.20998239    -0.05120
C692        C  0.33073189  0.86680519  0.22889902    -0.32550
C693        C  0.32880211  0.86889116  0.26956389     0.36700
C694        C  0.33938714  0.83655378  0.29347197    -0.05480
C695        C  0.35694218  0.80666308  0.27456652    -0.32450
C696        C  0.35859252  0.80416705  0.23449285     0.36610
H697        H  0.32046481  0.89114375  0.21178039     0.16980
O698        O  0.31369266  0.90114130  0.28545174    -0.59950
H699        H  0.36856959  0.78249066  0.28912360     0.16990
O700        O  0.37686277  0.77346726  0.22115057    -0.60040
H701        H  0.40042125  0.78028483  0.22678378     0.43990
H702        H  0.32977617  0.92303200  0.28281796     0.43940
C703        C  0.33723474  0.70139362  0.14540738    -0.05120
C704        C  0.36759914  0.72199466  0.15068581    -0.32550
C705        C  0.36836141  0.76382022  0.14807512     0.36700
C706        C  0.33791127  0.78498513  0.14824044    -0.05480
C707        C  0.31156870  0.76476630  0.12920794    -0.32450
C708        C  0.31246685  0.72349467  0.12528555     0.36610
H709        H  0.38994239  0.70639226  0.15972358     0.16980
O710        O  0.39815579  0.78307460  0.15124143    -0.59950
H711        H  0.29053339  0.78068354  0.11663708     0.16990
O712        O  0.29313758  0.70664551  0.09697687    -0.60040
H713        H  0.30519008  0.71094394  0.07247821     0.43990
H714        H  0.40673355  0.78408729  0.12448822     0.43940
C715        C  0.34215249  0.66168780  0.29454821    -0.05120
C716        C  0.34054508  0.69648375  0.27120832    -0.32550
C717        C  0.33626561  0.69606585  0.23088487     0.36700
C718        C  0.34217930  0.66169002  0.20914238    -0.05480
C719        C  0.34985594  0.62739236  0.23179182    -0.32450
C720        C  0.35064329  0.62723266  0.27299891     0.36610
H721        H  0.33600506  0.72484299  0.28364314     0.16980
O722        O  0.32044250  0.72806427  0.21443237    -0.59950
H723        H  0.35283519  0.59931655  0.21756360     0.16990
O724        O  0.36161072  0.59322888  0.29052369    -0.60040
H725        H  0.38589691  0.59681687  0.29443054     0.43990
H726        H  0.29642347  0.72170475  0.21503237     0.43940
C727        C  0.33101953  0.70637813  0.35274989    -0.05120
C728        C  0.36185282  0.72663776  0.35051230    -0.32550
C729        C  0.36318487  0.76825776  0.35484247     0.36700
C730        C  0.33286662  0.78951208  0.35450960    -0.05480
C731        C  0.30610773  0.76855985  0.37081620    -0.32450
C732        C  0.30552808  0.72741964  0.37114082     0.36610
H733        H  0.38416314  0.71047484  0.34341225     0.16980
O734        O  0.39295068  0.78821607  0.35422516    -0.59950
H735        H  0.28491188  0.78385233  0.38200956     0.16990
O736        O  0.27989679  0.70847477  0.38884376    -0.60040
H737        H  0.28789553  0.70317858  0.41581859     0.43990
H738        H  0.40846417  0.77312050  0.33793803     0.43940
C739        C  0.22063245  0.64796410  0.15925842    -0.05120
C740        C  0.23847069  0.64666923  0.19467327    -0.32550
C741        C  0.27287648  0.64302572  0.19715641     0.36700
C742        C  0.29324621  0.64523076  0.16333756    -0.05480
C743        C  0.27473306  0.63704491  0.12853492    -0.32450
C744        C  0.23946604  0.63898191  0.12606404     0.36610
H745        H  0.22655985  0.64989734  0.22213469     0.16980
O746        O  0.28504610  0.63697164  0.23398162    -0.59950
H747        H  0.28628804  0.63152942  0.10161121     0.16990
O748        O  0.22425942  0.63602172  0.09021736    -0.60040
H749        H  0.22548383  0.66278037  0.07838047     0.43990
H750        H  0.28188107  0.60842385  0.23946716     0.43940
C751        C  0.18145633  0.70800572  0.14375166    -0.05120
C752        C  0.15056438  0.72911792  0.14439455    -0.32550
C753        C  0.14964761  0.77104108  0.14452958     0.36700
C754        C  0.17966912  0.79208024  0.14898040    -0.05480
C755        C  0.20701606  0.77226579  0.13337636    -0.32450
C756        C  0.20953239  0.73158073  0.13549443     0.36610
H757        H  0.12749621  0.71314583  0.14729233     0.16980
O758        O  0.11976187  0.79052909  0.14096980    -0.59950
H759        H  0.22919066  0.78770135  0.12492077     0.16990
O760        O  0.24090868  0.71703213  0.13512970    -0.60040
H761        H  0.25061510  0.72288439  0.16116273     0.43990
H762        H  0.11722813  0.79710435  0.11294205     0.43940
C763        C  0.29466796  0.83698409  0.16461785    -0.05120
C764        C  0.27655111  0.81230885  0.18926652    -0.32550
C765        C  0.24250023  0.81541830  0.19402552     0.36700
C766        C  0.22320947  0.84143624  0.17013369    -0.05480
C767        C  0.24094517  0.86936705  0.14774623    -0.32450
C768        C  0.27631575  0.86782354  0.14538504     0.36610
H769        H  0.28964814  0.78983590  0.20577747     0.16980
O770        O  0.22724936  0.79094346  0.22034051    -0.59950
H771        H  0.22769184  0.89229884  0.13168765     0.16990
O772        O  0.29215415  0.89745837  0.12585146    -0.60040
H773        H  0.28437992  0.89556535  0.09841967     0.43990
H774        H  0.24282463  0.76957332  0.22865039     0.43940
C775        C  0.17042389  0.83759376  0.29586004    -0.05120
C776        C  0.14993913  0.81313841  0.27292570    -0.32550
C777        C  0.15107299  0.81250739  0.23214072     0.36700
C778        C  0.17312042  0.83751749  0.21170957    -0.05480
C779        C  0.18716311  0.86824573  0.23388355    -0.32450
C780        C  0.18677007  0.86835776  0.27455961     0.36610
H781        H  0.13200881  0.79403266  0.28533834     0.16980
O782        O  0.12717134  0.79107748  0.21339195    -0.59950
H783        H  0.20138595  0.89105254  0.21961169     0.16990
O784        O  0.20640060  0.89586927  0.29291893    -0.60040
H785        H  0.19823737  0.92214645  0.28380532     0.43990
H786        H  0.12857739  0.76378781  0.22400711     0.43940
C787        C  0.28945605  0.84045008  0.33529758    -0.05120
C788        C  0.27191602  0.86355289  0.36226984    -0.32550
C789        C  0.23686789  0.86065986  0.36574412     0.36700
C790        C  0.21848696  0.83442959  0.34170312    -0.05480
C791        C  0.23633475  0.81321622  0.31412413    -0.32450
C792        C  0.26990336  0.81778442  0.30911586     0.36610
H793        H  0.28506194  0.88330007  0.38143637     0.16980
O794        O  0.22156246  0.88212319  0.39375873    -0.59950
H795        H  0.22343608  0.79299635  0.29499365     0.16990
O796        O  0.28300045  0.79978447  0.27750828    -0.60040
H797        H  0.29837071  0.77923059  0.28753769     0.43990
H798        H  0.22049223  0.90953514  0.38338605     0.43940
C799        C  0.16558403  0.65623762  0.28487851    -0.05120
C800        C  0.16180453  0.69198874  0.26416938    -0.32550
C801        C  0.16903215  0.69460389  0.22507150     0.36700
C802        C  0.16933461  0.66089629  0.20053126    -0.05480
C803        C  0.16574422  0.62432626  0.22084823    -0.32450
C804        C  0.16694534  0.62177355  0.26194868     0.36610
H805        H  0.16298162  0.71991398  0.27855854     0.16980
O806        O  0.18450584  0.72876655  0.21509515    -0.59950
H807        H  0.16699129  0.59668252  0.20643566     0.16990
O808        O  0.17295254  0.58566186  0.27928423    -0.60040
H809        H  0.15318425  0.56935550  0.27309174     0.43990
H810        H  0.20840748  0.72176772  0.21700626     0.43940
C811        C  0.21571897  0.64690777  0.32749911    -0.05120
C812        C  0.23369110  0.67296949  0.30437397    -0.32550
C813        C  0.26767311  0.67807276  0.30807852     0.36700
C814        C  0.28810331  0.65365117  0.33251224    -0.05480
C815        C  0.27055202  0.62356197  0.35291812    -0.32450
C816        C  0.23524526  0.61929511  0.34964422     0.36610
H817        H  0.22095804  0.69508521  0.28688899     0.16980
O818        O  0.27912651  0.71182092  0.29167246    -0.59950
H819        H  0.28331197  0.60401200  0.37314976     0.16990
O820        O  0.22080344  0.58824365  0.36849855    -0.60040
H821        H  0.21733414  0.56792781  0.34835404     0.43990
H822        H  0.26727317  0.73309255  0.30534534     0.43940
C823        C  0.17269074  0.69839940  0.34720122    -0.05120
C824        C  0.19928889  0.71736729  0.36620235    -0.32550
C825        C  0.20016251  0.75833019  0.36926442     0.36700
C826        C  0.17484349  0.78208130  0.35114138    -0.05480
C827        C  0.14397896  0.76240265  0.34694849    -0.32450
C828        C  0.14271044  0.72068859  0.34458193     0.36610
H829        H  0.22008435  0.70059779  0.37784852     0.16980
O830        O  0.22521909  0.77447876  0.39130086    -0.59950
H831        H  0.12116135  0.77923165  0.34343951     0.16990
O832        O  0.11337229  0.70304846  0.33408667    -0.60040
H833        H  0.10293026  0.69571519  0.35894328     0.43990
H834        H  0.21796653  0.77209274  0.41854830     0.43940
C835        C  0.15594450  0.62807390  0.35448894    -0.05120
C836        C  0.12647586  0.61107514  0.33920539    -0.32550
C837        C  0.10550149  0.58838771  0.36197506     0.36700
C838        C  0.11245205  0.58285737  0.40176871    -0.05480
C839        C  0.14113468  0.59985245  0.41793229    -0.32450
C840        C  0.16214604  0.62321585  0.39510537     0.36610
H841        H  0.11811463  0.61641442  0.30966050     0.16980
O842        O  0.07755501  0.57251808  0.34496533    -0.59950
H843        H  0.14639338  0.59676592  0.44879884     0.16990
O844        O  0.18831645  0.64185887  0.41310054    -0.60040
H845        H  0.17825692  0.66357268  0.42803306     0.43990
H846        H  0.08415857  0.54548207  0.33738869     0.43810
C847        C  0.12132996  0.91140379  0.09421518    -0.05120
C848        C  0.14761395  0.89063868  0.07780628    -0.32550
C849        C  0.16903953  0.86705958  0.10118202     0.36700
C850        C  0.16487316  0.86469235  0.14206170    -0.05480
C851        C  0.13950260  0.88834666  0.15794302    -0.32450
C852        C  0.11815147  0.91115501  0.13461344     0.36610
H853        H  0.15037209  0.89078131  0.04658178     0.16980
O854        O  0.19330833  0.84553268  0.08355764    -0.59950
H855        H  0.13451977  0.88861332  0.18857825     0.16990
O856        O  0.09315900  0.93203433  0.15168347    -0.60040
H857        H  0.10260964  0.95849688  0.15670351     0.43990
H858        H  0.18145506  0.82416732  0.06962120     0.43940
C859        C  0.39782177  0.58331102  0.09492161    -0.05120
C860        C  0.40660874  0.59210988  0.13333497    -0.32550
C861        C  0.38757595  0.61791047  0.15532011     0.36700
C862        C  0.35592663  0.63191206  0.14112765    -0.05480
C863        C  0.35002942  0.62648195  0.10079122    -0.32450
C864        C  0.36942461  0.60124921  0.07841653     0.36610
H865        H  0.43001282  0.58136130  0.14565300     0.16980
O866        O  0.40271768  0.63284943  0.18799718    -0.59950
H867        H  0.33264313  0.64497301  0.08494958     0.16990
O868        O  0.36244196  0.59793707  0.03945001    -0.60040
H869        H  0.34585109  0.57648178  0.03746146     0.43990
H870        H  0.42068534  0.65028984  0.17871214     0.43940
C871        C  0.11981982  0.58695884  0.08499119    -0.05120
C872        C  0.12251999  0.62672756  0.07518761    -0.32550
C873        C  0.14494758  0.65120172  0.09492771     0.36700
C874        C  0.16300008  0.63672035  0.12853944    -0.05480
C875        C  0.16388434  0.59508746  0.13314030    -0.32450
C876        C  0.14191764  0.57053463  0.11265901     0.36610
H877        H  0.10777145  0.63872306  0.05108077     0.16980
O878        O  0.15197385  0.68685258  0.07764830    -0.59950
H879        H  0.18239993  0.58103102  0.15181006     0.16990
O880        O  0.14216750  0.53066935  0.12002737    -0.60040
H881        H  0.12699737  0.52688429  0.14206282     0.43990
H882        H  0.13044143  0.70098441  0.07393665     0.43940
C883        C  0.39267928  0.90630240  0.40988937    -0.05120
C884        C  0.36781368  0.88380182  0.42708591    -0.32550
C885        C  0.34582167  0.86125681  0.40419835     0.36700
C886        C  0.34827487  0.86143698  0.36301010    -0.05480
C887        C  0.37299289  0.88586424  0.34666977    -0.32450
C888        C  0.39470641  0.90778418  0.36947839     0.36610
H889        H  0.36647414  0.88209571  0.45840885     0.16980
O890        O  0.32386951  0.83677752  0.42253235    -0.59950
H891        H  0.37738068  0.88749544  0.31596970     0.16990
O892        O  0.41820259  0.93067128  0.35180503    -0.60040
H893        H  0.43558835  0.91193602  0.34340806     0.43990
H894        H  0.30975843  0.85404592  0.43849626     0.43940
C895        C  0.34525503  0.63490781  0.36855071    -0.05120
C896        C  0.34531184  0.59339306  0.36405537    -0.32550
C897        C  0.36714338  0.56850683  0.38556161     0.36700
C898        C  0.38859740  0.58458589  0.41368571    -0.05480
C899        C  0.38480107  0.62392251  0.42338905    -0.32450
C900        C  0.36243944  0.64856640  0.40297822     0.36610
H901        H  0.32878527  0.57988757  0.34300388     0.16980
O902        O  0.36849337  0.52902738  0.37739629    -0.59950
H903        H  0.39897360  0.63564961  0.44773468     0.16990
O904        O  0.35542865  0.68407933  0.41991250    -0.60040
H905        H  0.37687105  0.69825195  0.42267257     0.43990
H906        H  0.35265365  0.51640643  0.39531573     0.43940
C907        C  0.11679304  0.90234873  0.41258607    -0.05120
C908        C  0.12550340  0.86451649  0.42557884    -0.32550
C909        C  0.14732145  0.84083315  0.40456652     0.36700
C910        C  0.15974702  0.85420168  0.36805528    -0.05480
C911        C  0.15157880  0.89357949  0.35698459    -0.32450
C912        C  0.13101271  0.91748390  0.37903197     0.36610
H913        H  0.11532416  0.85316612  0.45235058     0.16980
O914        O  0.15717814  0.80563126  0.42128709    -0.59950
H915        H  0.15987177  0.90651168  0.33054526     0.16990
O916        O  0.12438274  0.95552609  0.36699151    -0.60040
H917        H  0.10483141  0.95367002  0.34912488     0.43990
H918        H  0.13678984  0.78940716  0.42312057     0.43940
C919        C  0.39755837  0.90114514  0.09192403    -0.05120
C920        C  0.40423278  0.89778757  0.13161240    -0.32550
C921        C  0.38417724  0.87559801  0.15583041     0.36700
C922        C  0.35514632  0.85624978  0.14074484    -0.05480
C923        C  0.34912960  0.85931549  0.10019004    -0.32450
C924        C  0.36943904  0.88229480  0.07611690     0.36610
H925        H  0.42605746  0.91182095  0.14413508     0.16980
O926        O  0.39502558  0.87187357  0.19367480    -0.59950
H927        H  0.32853104  0.84351990  0.08704309     0.16990
O928        O  0.36270572  0.88415745  0.03697957    -0.60040
H929        H  0.34655973  0.90618621  0.03344988     0.43990
H930        H  0.41229749  0.85086774  0.19370809     0.43940
O931        O  0.44872527  0.91811862  0.92419986    -0.74950
O932        O  0.40956743  0.94941124  0.96004289    -0.53860
C933        C  0.41852130  0.92561864  0.93338401     0.78780
O934        O  0.06501206  0.92188439  0.57905635    -0.59550
O935        O  0.10338795  0.95272466  0.54152994    -0.52580
C936        C  0.09505966  0.92988914  0.56973463     0.70790
O937        O  0.45284284  0.91504431  0.57641834    -0.74110
O938        O  0.41149422  0.94775432  0.54277727    -0.54670
C939        C  0.42200447  0.92239942  0.56827402     0.76800
O940        O  0.06071195  0.91527598  0.92485971    -0.59250
O941        O  0.10051291  0.95173496  0.95608021    -0.52370
C942        C  0.09108624  0.92465675  0.93254677     0.73390
Zr943      Zr  0.50508283  0.93660524  0.94270364     2.54710
O944        O  0.50388950  0.86481488  0.94211639    -0.79820
O945        O  0.00573642  0.94143266  0.87215394    -0.93230
Zr946      Zr  0.50823344  0.93530341  0.55712067     2.64680
O947        O  0.51114737  0.86363370  0.55338892    -0.98190
O948        O  0.00832692  0.93235713  0.62776876    -0.80250
O949        O  0.47405659  0.93462097  0.50047426    -0.83610
O950        O  0.03920754  0.93534971  0.49948917    -2.18320
O951        O  0.05727039  0.56989125  0.91878343    -0.67000
O952        O  0.09888693  0.53909739  0.95374877    -0.51560
C953        C  0.08813009  0.56255341  0.92654233     0.71770
O954        O  0.45279760  0.56998200  0.57861625    -0.59900
O955        O  0.41189597  0.53732941  0.54540176    -0.51880
C956        C  0.42216315  0.56200343  0.57121246     0.73580
O957        O  0.06359025  0.57264627  0.57432410    -0.71300
O958        O  0.10229620  0.53751930  0.54130696    -0.49980
C959        C  0.09368171  0.56373618  0.56588807     0.74960
O960        O  0.44540304  0.57227014  0.92528043    -0.66630
O961        O  0.40767574  0.53479116  0.95770468    -0.53830
C962        C  0.41550611  0.56187861  0.93316545     0.73340
Zr963      Zr  0.00255776  0.55316787  0.94254435     2.77540
O964        O  0.50304583  0.62495025  0.94551428    -0.97380
O965        O  0.49788969  0.55414264  0.87198050    -0.78200
Zr966      Zr  0.00744925  0.55166655  0.55706833     2.70070
O967        O  0.00605049  0.62348731  0.55681742    -0.79450
O968        O  0.51037796  0.54691865  0.62764101    -0.98530
Zr969      Zr  0.44112959  0.49342951  0.50144984     2.21500
Zr970      Zr  0.07033672  0.99517212  0.99837924     2.11130
O971        O  0.03751538  0.55405639  0.99879186    -2.47220
O972        O  0.47230034  0.55315637  0.00081176    -0.79240
O973        O  0.03632254  0.99553258  0.94086547    -0.71440
O974        O  0.47531185  0.49322684  0.55892693    -2.32390
O975        O  0.47139342  0.49427726  0.94250212    -2.28600
O976        O  0.04036045  0.99377176  0.55729301    -0.73190
H977        H  0.05372650  0.91255845  0.49966633     0.78800
H978        H  0.46198114  0.49276990  0.58191946     0.79890
H979        H  0.05141226  0.57720505  0.99826404     0.82120
H980        H  0.45655713  0.49437580  0.92010117     0.79720
H981        H  0.49809824  0.95761493  0.63556283     0.42760
H982        H  0.03019198  0.53025262  0.63345406     0.41730
H983        H  0.49483372  0.63077733  0.53188538     0.41410
H984        H  0.02480536  0.63155681  0.95763083     0.39340
H985        H  0.01175699  0.53161903  0.86379581     0.42470
H986        H  0.48645117  0.95845262  0.86497625     0.37260
H987        H  0.49750109  0.85717591  0.96875268     0.43370
H988        H  0.03320039  0.85790406  0.54248592     0.39790
H989        H  0.00487641  0.63372436  0.91812977     0.44710
H990        H  0.99935854  0.91480723  0.86321260     0.43430
H991        H  0.51308069  0.85460348  0.58078529     0.43570
H992        H  0.01686103  0.57365709  0.63615694     0.43920
C993        C  0.17712857  0.65618757  0.82909035    -0.02140
C994        C  0.18010346  0.82743613  0.84021588    -0.02140
C995        C  0.18435835  0.83422489  0.66784732    -0.02140
C996        C  0.18351102  0.66325997  0.65744758    -0.02140
C997        C  0.32688346  0.66299010  0.83763163    -0.02140
C998        C  0.33188339  0.65924378  0.66450707    -0.02140
C999        C  0.33330207  0.82801315  0.66526165    -0.02140
C1000       C  0.32798944  0.83262892  0.83704179    -0.02140
C1001       C  0.34228561  0.83239646  0.70998223    -0.05120
C1002       C  0.33073224  0.86680498  0.72889865    -0.32550
C1003       C  0.32880220  0.86889107  0.76956348     0.36700
C1004       C  0.33938713  0.83655377  0.79347173    -0.05480
C1005       C  0.35694236  0.80666305  0.77456654    -0.32450
C1006       C  0.35859307  0.80416700  0.73449288     0.36610
H1007       H  0.32046519  0.89114345  0.71177988     0.16980
O1008       O  0.31369264  0.90114125  0.78545110    -0.59950
H1009       H  0.36856974  0.78249072  0.78912383     0.16990
O1010       O  0.37686378  0.77346750  0.72115081    -0.60040
H1011       H  0.40042215  0.78028559  0.72678403     0.43990
H1012       H  0.32977615  0.92303196  0.78281736     0.43940
C1013       C  0.33723538  0.70139303  0.64540803    -0.05120
C1014       C  0.36759980  0.72199407  0.65068634    -0.32550
C1015       C  0.36836208  0.76381960  0.64807543     0.36700
C1016       C  0.33791195  0.78498454  0.64824054    -0.05480
C1017       C  0.31156940  0.76476561  0.62920812    -0.32450
C1018       C  0.31246752  0.72349395  0.62528603     0.36610
H1019       H  0.38994305  0.70639170  0.65972417     0.16980
O1020       O  0.39815649  0.78307395  0.65124144    -0.59950
H1021       H  0.29053412  0.78068277  0.61663711     0.16990
O1022       O  0.29313816  0.70664458  0.59697756    -0.60040
H1023       H  0.30519050  0.71094302  0.57247878     0.43990
H1024       H  0.40673190  0.78409128  0.62448728     0.43940
C1025       C  0.34215233  0.66168781  0.79454899    -0.05120
C1026       C  0.34054522  0.69648371  0.77120902    -0.32550
C1027       C  0.33626622  0.69606575  0.73088553     0.36700
C1028       C  0.34217988  0.66168978  0.70914321    -0.05480
C1029       C  0.34985634  0.62739218  0.73179281    -0.32450
C1030       C  0.35064343  0.62723263  0.77299989     0.36610
H1031       H  0.33600507  0.72484297  0.78364373     0.16980
O1032       O  0.32044346  0.72806428  0.71443279    -0.59950
H1033       H  0.35283567  0.59931633  0.71756471     0.16990
O1034       O  0.36161105  0.59322902  0.79052484    -0.60040
H1035       H  0.38589717  0.59681735  0.79443200     0.43990
H1036       H  0.29642438  0.72170493  0.71503244     0.43940
C1037       C  0.33101902  0.70637832  0.85275042    -0.05120
C1038       C  0.36185239  0.72663782  0.85051308    -0.32550
C1039       C  0.36318447  0.76825789  0.85484277     0.36700
C1040       C  0.33286626  0.78951231  0.85450952    -0.05480
C1041       C  0.30610724  0.76856028  0.87081604    -0.32450
C1042       C  0.30552745  0.72742007  0.87114085     0.36610
H1043       H  0.38416274  0.71047476  0.84341343     0.16980
O1044       O  0.39295033  0.78821609  0.85422562    -0.59950
H1045       H  0.28491142  0.78385294  0.88200921     0.16990
O1046       O  0.27989598  0.70847542  0.88884364    -0.60040
H1047       H  0.28789439  0.70317969  0.91581868     0.43990
H1048       H  0.40846389  0.77312035  0.83793872     0.43940
C1049       C  0.22063301  0.64796345  0.65925919    -0.05120
C1050       C  0.23847118  0.64666905  0.69467409    -0.32550
C1051       C  0.27287698  0.64302569  0.69715734     0.36700
C1052       C  0.29324679  0.64523032  0.66333852    -0.05480
C1053       C  0.27473371  0.63704405  0.62853594    -0.32450
C1054       C  0.23946670  0.63898101  0.62606495     0.36610
H1055       H  0.22656025  0.64989750  0.72213541     0.16980
O1056       O  0.28504654  0.63697216  0.73398265    -0.59950
H1057       H  0.28628874  0.63152820  0.60161233     0.16990
O1058       O  0.22426017  0.63602049  0.59021825    -0.60040
H1059       H  0.22548458  0.66277905  0.57838115     0.43990
H1060       H  0.28188139  0.60842447  0.73946865     0.43940
C1061       C  0.18145710  0.70800507  0.64375191    -0.05120
C1062       C  0.15056514  0.72911730  0.64439423    -0.32550
C1063       C  0.14964838  0.77104046  0.64452882     0.36700
C1064       C  0.17966989  0.79207962  0.64897973    -0.05480
C1065       C  0.20701692  0.77226500  0.63337611    -0.32450
C1066       C  0.20953325  0.73157996  0.63549480     0.36610
H1067       H  0.12749694  0.71314526  0.64729189     0.16980
O1068       O  0.11976268  0.79052847  0.64096863    -0.59950
H1069       H  0.22919157  0.78770046  0.62492055     0.16990
O1070       O  0.24090956  0.71703136  0.63513081    -0.60040
H1071       H  0.25061570  0.72288407  0.66116387     0.43990
H1072       H  0.11722905  0.79710335  0.61294078     0.43940
C1073       C  0.29466864  0.83698364  0.66461743    -0.05120
C1074       C  0.27655174  0.81230862  0.68926626    -0.32550
C1075       C  0.24250085  0.81541804  0.69402507     0.36700
C1076       C  0.22321012  0.84143577  0.67013297    -0.05480
C1077       C  0.24094585  0.86936632  0.64774524    -0.32450
C1078       C  0.27631644  0.86782281  0.64538417     0.36610
H1079       H  0.28964873  0.78983584  0.70577748     0.16980
O1080       O  0.22724997  0.79094334  0.72034017    -0.59950
H1081       H  0.22769254  0.89229787  0.63168629     0.16990
O1082       O  0.29215484  0.89745735  0.62585017    -0.60040
H1083       H  0.28438074  0.89556379  0.59841837     0.43990
H1084       H  0.24282504  0.76957283  0.72864959     0.43940
C1085       C  0.17042392  0.83759369  0.79585893    -0.05120
C1086       C  0.14993966  0.81313777  0.77292465    -0.32550
C1087       C  0.15107353  0.81250687  0.73213969     0.36700
C1088       C  0.17312099  0.83751703  0.71170866    -0.05480
C1089       C  0.18716346  0.86824547  0.73388260    -0.32450
C1090       C  0.18676980  0.86835790  0.77455862     0.36610
H1091       H  0.13200965  0.79403160  0.78533731     0.16980
O1092       O  0.12717177  0.79107721  0.71339082    -0.59950
H1093       H  0.20138625  0.89105235  0.71961078     0.16990
O1094       O  0.20639913  0.89587036  0.79291832    -0.60040
H1095       H  0.19823519  0.92214714  0.78380444     0.43990
H1096       H  0.12857737  0.76378758  0.72400615     0.43940
C1097       C  0.28945586  0.84045038  0.83529699    -0.05120
C1098       C  0.27191575  0.86355386  0.86226865    -0.32550
C1099       C  0.23686757  0.86066116  0.86574260     0.36700
C1100       C  0.21848673  0.83443030  0.84170216    -0.05480
C1101       C  0.23633460  0.81321643  0.81412358    -0.32450
C1102       C  0.26990325  0.81778447  0.80911542     0.36610
H1103       H  0.28506164  0.88330139  0.88143486     0.16980
O1104       O  0.22156193  0.88212577  0.89375612    -0.59950
H1105       H  0.22343600  0.79299626  0.79499335     0.16990
O1106       O  0.28300046  0.79978414  0.77750813    -0.60040
H1107       H  0.29837083  0.77923051  0.78753781     0.43990
H1108       H  0.22049025  0.90953686  0.88338134     0.43940
C1109       C  0.16558359  0.65623805  0.78487890    -0.05120
C1110       C  0.16180404  0.69198897  0.76416946    -0.32550
C1111       C  0.16903207  0.69460384  0.72507166     0.36700
C1112       C  0.16933497  0.66089603  0.70053170    -0.05480
C1113       C  0.16574460  0.62432614  0.72084891    -0.32450
C1114       C  0.16694523  0.62177379  0.76194938     0.36610
H1115       H  0.16298077  0.71991431  0.77855846     0.16980
O1116       O  0.18450578  0.72876648  0.71509528    -0.59950
H1117       H  0.16699206  0.59668228  0.70643662     0.16990
O1118       O  0.17295238  0.58566226  0.77928530    -0.60040
H1119       H  0.15318413  0.56935583  0.77309279     0.43990
H1120       H  0.20840741  0.72176772  0.71700679     0.43940
C1121       C  0.21571836  0.64690844  0.82749975    -0.05120
C1122       C  0.23369059  0.67296986  0.80437438    -0.32550
C1123       C  0.26767268  0.67807280  0.80807867     0.36700
C1124       C  0.28810277  0.65365137  0.83251266    -0.05480
C1125       C  0.27055134  0.62356249  0.85291885    -0.32450
C1126       C  0.23524456  0.61929586  0.84964506     0.36610
H1127       H  0.22095760  0.69508551  0.78688924     0.16980
O1128       O  0.27912631  0.71182052  0.79167196    -0.59950
H1129       H  0.28331123  0.60401263  0.87315064     0.16990
O1130       O  0.22080262  0.58824470  0.86849975    -0.60040
H1131       H  0.21733325  0.56792864  0.84835548     0.43990
H1132       H  0.26727308  0.73309250  0.80534442     0.43940
C1133       C  0.17269015  0.69840039  0.84720136    -0.05120
C1134       C  0.19928835  0.71736828  0.86620235    -0.32550
C1135       C  0.20016210  0.75833119  0.86926417     0.36700
C1136       C  0.17484304  0.78208229  0.85114120    -0.05480
C1137       C  0.14397844  0.76240378  0.84694868    -0.32450
C1138       C  0.14270987  0.72068969  0.84458208     0.36610
H1139       H  0.22008376  0.70059876  0.87784859     0.16980
O1140       O  0.22521894  0.77447984  0.89130017    -0.59950
H1141       H  0.12116093  0.77923293  0.84343928     0.16990
O1142       O  0.11337169  0.70304961  0.83408689    -0.60040
H1143       H  0.10292972  0.69571628  0.85894352     0.43990
H1144       H  0.21796797  0.77209104  0.91854802     0.43940
C1145       C  0.15594376  0.62807490  0.85448942    -0.05120
C1146       C  0.12647523  0.61107598  0.83920578    -0.32550
C1147       C  0.10550090  0.58838843  0.86197537     0.36700
C1148       C  0.11245139  0.58285812  0.90176905    -0.05480
C1149       C  0.14113384  0.59985351  0.91793276    -0.32450
C1150       C  0.16214515  0.62321705  0.89510590     0.36610
H1151       H  0.11811409  0.61641514  0.80966083     0.16980
O1152       O  0.07755454  0.57251861  0.84496555    -0.59950
H1153       H  0.14639244  0.59676706  0.94879933     0.16990
O1154       O  0.18831539  0.64186031  0.91310115    -0.60040
H1155       H  0.17825569  0.66357422  0.92803338     0.43990
H1156       H  0.08415826  0.54548265  0.83738892     0.43810
C1157       C  0.12133060  0.91140322  0.59421443    -0.05120
C1158       C  0.14761437  0.89063782  0.57780540    -0.32550
C1159       C  0.16903999  0.86705872  0.60118111     0.36700
C1160       C  0.16487383  0.86469176  0.64206083    -0.05480
C1161       C  0.13950348  0.88834635  0.65794221    -0.32450
C1162       C  0.11815236  0.91115473  0.63461270     0.36610
H1163       H  0.15037231  0.89078024  0.54658087     0.16980
O1164       O  0.19330860  0.84553157  0.58355668    -0.59950
H1165       H  0.13452078  0.88861326  0.68857746     0.16990
O1166       O  0.09316012  0.93203437  0.65168282    -0.60040
H1167       H  0.10261115  0.95849665  0.65670325     0.43990
H1168       H  0.18145517  0.82416614  0.56962051     0.43940
C1169       C  0.39782239  0.58331059  0.59492240    -0.05120
C1170       C  0.40660937  0.59210936  0.63333579    -0.32550
C1171       C  0.38757652  0.61790981  0.65532104     0.36700
C1172       C  0.35592721  0.63191147  0.64112859    -0.05480
C1173       C  0.35002999  0.62648139  0.60079215    -0.32450
C1174       C  0.36942518  0.60124871  0.57841741     0.36610
H1175       H  0.43001347  0.58136079  0.64565376     0.16980
O1176       O  0.40271819  0.63284860  0.68799822    -0.59950
H1177       H  0.33264368  0.64497245  0.58495054     0.16990
O1178       O  0.36244246  0.59793660  0.53945090    -0.60040
H1179       H  0.34585161  0.57648129  0.53746238     0.43990
H1180       H  0.42068576  0.65028921  0.67871330     0.43940
C1181       C  0.11982047  0.58695835  0.58499160    -0.05120
C1182       C  0.12252104  0.62672695  0.57518771    -0.32550
C1183       C  0.14494867  0.65120101  0.59492787     0.36700
C1184       C  0.16300075  0.63671975  0.62853993    -0.05480
C1185       C  0.16388469  0.59508688  0.63314109    -0.32450
C1186       C  0.14191794  0.57053412  0.61265978     0.36610
H1187       H  0.10777280  0.63872240  0.55108059     0.16980
O1188       O  0.15197544  0.68685161  0.57764820    -0.59950
H1189       H  0.18240011  0.58103037  0.65181104     0.16990
O1190       O  0.14216744  0.53066890  0.62002844    -0.60040
H1191       H  0.12699740  0.52688425  0.64206403     0.43990
H1192       H  0.13044318  0.70098367  0.57393607     0.43940
C1193       C  0.39267884  0.90630256  0.90988922    -0.05120
C1194       C  0.36781310  0.88380213  0.92708567    -0.32550
C1195       C  0.34582109  0.86125723  0.90419803     0.36700
C1196       C  0.34827453  0.86143723  0.86300981    -0.05480
C1197       C  0.37299262  0.88586443  0.84666955    -0.32450
C1198       C  0.39470607  0.90778438  0.86947825     0.36610
H1199       H  0.36647342  0.88209610  0.95840861     0.16980
O1200       O  0.32386866  0.83677823  0.92253192    -0.59950
H1201       H  0.37738050  0.88749561  0.81596950     0.16990
O1202       O  0.41820225  0.93067154  0.85180498    -0.60040
H1203       H  0.43558795  0.91193630  0.84340780     0.43990
H1204       H  0.30975736  0.85404690  0.93849530     0.43940
C1205       C  0.34525422  0.63490794  0.86855141    -0.05120
C1206       C  0.34531105  0.59339323  0.86405594    -0.32550
C1207       C  0.36714274  0.56850703  0.88556197     0.36700
C1208       C  0.38859672  0.58458609  0.91368612    -0.05480
C1209       C  0.38480012  0.62392260  0.92338980    -0.32450
C1210       C  0.36243838  0.64856646  0.90297907     0.36610
H1211       H  0.32878454  0.57988781  0.84300432     0.16980
O1212       O  0.36849298  0.52902767  0.87739635    -0.59950
H1213       H  0.39897252  0.63564963  0.94773556     0.16990
O1214       O  0.35542723  0.68407921  0.91991349    -0.60040
H1215       H  0.37686951  0.69825202  0.92267384     0.43990
H1216       H  0.35265334  0.51640642  0.89531569     0.43940
C1217       C  0.11679290  0.90234983  0.91258507    -0.05120
C1218       C  0.12550636  0.86451919  0.92557981    -0.32550
C1219       C  0.14732421  0.84083598  0.90456702     0.36700
C1220       C  0.15974672  0.85420295  0.86805380    -0.05480
C1221       C  0.15157518  0.89357922  0.85698074    -0.32450
C1222       C  0.13100919  0.91748357  0.87902831     0.36610
H1223       H  0.11532945  0.85316983  0.95235321     0.16980
O1224       O  0.15718318  0.80563542  0.92128850    -0.59950
H1225       H  0.15986518  0.90651006  0.83053935     0.16990
O1226       O  0.12437611  0.95552433  0.86698561    -0.60040
H1227       H  0.10482378  0.95366522  0.84912084     0.43990
H1228       H  0.13679582  0.78940978  0.92312290     0.43940
C1229       C  0.39755902  0.90114470  0.59192386    -0.05120
C1230       C  0.40423321  0.89778751  0.63161229    -0.32550
C1231       C  0.38417774  0.87559785  0.65583027     0.36700
C1232       C  0.35514706  0.85624920  0.64074461    -0.05480
C1233       C  0.34913059  0.85931449  0.60018975    -0.32450
C1234       C  0.36944001  0.88229382  0.57611661     0.36610
H1235       H  0.42605770  0.91182125  0.64413504     0.16980
O1236       O  0.39502593  0.87187373  0.69367475    -0.59950
H1237       H  0.32853225  0.84351855  0.58704274     0.16990
O1238       O  0.36270701  0.88415598  0.53697920    -0.60040
H1239       H  0.34656082  0.90618449  0.53344911     0.43990
H1240       H  0.41229791  0.85086797  0.69370827     0.43940
O1241       O  0.94872572  0.41811852  0.42419999    -0.74950
O1242       O  0.90956791  0.44941121  0.46004300    -0.53860
C1243       C  0.91852176  0.42561856  0.43338413     0.78780
O1244       O  0.56501144  0.42188479  0.07905673    -0.59550
O1245       O  0.60338740  0.45272504  0.04153041    -0.52580
C1246       C  0.59505907  0.42988962  0.06973518     0.70790
O1247       O  0.95284223  0.41504457  0.07641834    -0.74110
O1248       O  0.91149363  0.44775459  0.04277727    -0.54670
C1249       C  0.92200385  0.42239975  0.06827407     0.76800
O1250       O  0.56071221  0.41527507  0.42486066    -0.59250
O1251       O  0.60051318  0.45173502  0.45608000    -0.52370
C1252       C  0.59108649  0.42465620  0.43254727     0.73390
Zr1253     Zr  0.00508324  0.43660515  0.44270382     2.54710
O1254       O  0.00388952  0.36481481  0.44211630    -0.79820
O1255       O  0.50573706  0.44143284  0.37215418    -0.93230
Zr1256     Zr  0.00823287  0.43530346  0.05712050     2.64680
O1257       O  0.01114692  0.36363379  0.05338833    -0.98190
O1258       O  0.50832621  0.43235667  0.12776854    -0.80250
O1259       O  0.97405609  0.43462099  0.00047405    -0.83610
O1260       O  0.53920715  0.43534976  0.99948902    -2.18320
O1261       O  0.55727100  0.06989081  0.41878328    -0.67000
O1262       O  0.59888752  0.03909710  0.45374876    -0.51560
C1263       C  0.58813070  0.06255295  0.42654217     0.71770
O1264       O  0.95279696  0.06998228  0.07861566    -0.59900
O1265       O  0.91189537  0.03732957  0.04540126    -0.51880
C1266       C  0.92216252  0.06200372  0.07121183     0.73580
O1267       O  0.56358962  0.07264661  0.07432379    -0.71300
O1268       O  0.60229563  0.03751956  0.04130683    -0.49980
C1269       C  0.59368109  0.06373656  0.06588780     0.74960
O1270       O  0.94540363  0.07226986  0.42528025    -0.66630
O1271       O  0.90767625  0.03479115  0.45770467    -0.53830
C1272       C  0.91550669  0.06187842  0.43316525     0.73340
Zr1273     Zr  0.50255836  0.05316782  0.44254451     2.77540
O1274       O  0.00304650  0.12495018  0.44551482    -0.97380
O1275       O  0.99789022  0.05414309  0.37198067    -0.78200
Zr1276     Zr  0.50744865  0.05166663  0.05706817     2.70070
O1277       O  0.50604989  0.12348739  0.05681721    -0.79450
O1278       O  0.01037730  0.04691883  0.12764082    -0.98530
Zr1279     Zr  0.94112914  0.99342950  0.00144967     2.21500
Zr1280     Zr  0.57033716  0.49517202  0.49837928     2.11130
O1281       O  0.53751596  0.05405637  0.49879203    -2.47220
O1282       O  0.97230086  0.05315635  0.50081195    -0.79240
O1283       O  0.53632298  0.49553243  0.44086553    -0.71440
O1284       O  0.97531133  0.99322690  0.05892679    -2.32390
O1285       O  0.97139387  0.99427726  0.44250234    -2.28600
O1286       O  0.54035989  0.49377184  0.05729289    -0.73190
H1287       H  0.55372615  0.41255853  0.99966616     0.78800
H1288       H  0.96198061  0.99276999  0.08191931     0.79890
H1289       H  0.55141288  0.07720501  0.49826421     0.82120
H1290       H  0.95655759  0.99437578  0.42010139     0.79720
H1291       H  0.99809891  0.45761524  0.13556281     0.42760
H1292       H  0.53019149  0.03025313  0.13345397     0.41730
H1293       H  0.99483263  0.13077738  0.03188540     0.41410
H1294       H  0.52480639  0.13155666  0.45763070     0.39340
H1295       H  0.51175717  0.03161917  0.36379585     0.42470
H1296       H  0.98645178  0.45845261  0.36497641     0.37260
H1297       H  0.99750185  0.35717576  0.46875283     0.43370
H1298       H  0.53320030  0.35790422  0.04248608     0.39790
H1299       H  0.50487650  0.13372444  0.41813029     0.44710
H1300       H  0.49935941  0.41480739  0.36321272     0.43430
H1301       H  0.01307943  0.35460336  0.08078469     0.43570
H1302       H  0.51685999  0.07365738  0.13615677     0.43920
C1303       C  0.67712918  0.15618683  0.32908996    -0.02140
C1304       C  0.68010376  0.32743544  0.34021685    -0.02140
C1305       C  0.68435767  0.33422548  0.16784816    -0.02140
C1306       C  0.68351040  0.16326058  0.15744711    -0.02140
C1307       C  0.82688399  0.16298994  0.33763103    -0.02140
C1308       C  0.83188278  0.15924430  0.16450621    -0.02140
C1309       C  0.83330140  0.32801366  0.16526183    -0.02140
C1310       C  0.82798970  0.33262874  0.33704208    -0.02140
C1311       C  0.84228509  0.33239672  0.20998238    -0.05120
C1312       C  0.83073191  0.36680521  0.22889902    -0.32550
C1313       C  0.82880214  0.36889118  0.26956389     0.36700
C1314       C  0.83938719  0.33655379  0.29347196    -0.05480
C1315       C  0.85694223  0.30666311  0.27456650    -0.32450
C1316       C  0.85859258  0.30416710  0.23449282     0.36610
H1317       H  0.82046481  0.39114377  0.21178041     0.16980
O1318       O  0.81369270  0.40114131  0.28545176    -0.59950
H1319       H  0.86856967  0.28249070  0.28912357     0.16990
O1320       O  0.87686287  0.27346735  0.22115053    -0.60040
H1321       H  0.90042134  0.28028499  0.22678371     0.43990
H1322       H  0.82977621  0.42303201  0.28281797     0.43940
C1323       C  0.83723473  0.20139366  0.14540737    -0.05120
C1324       C  0.86759913  0.22199469  0.15068577    -0.32550
C1325       C  0.86836140  0.26382025  0.14807508     0.36700
C1326       C  0.83791126  0.28498516  0.14824043    -0.05480
C1327       C  0.81156868  0.26476633  0.12920795    -0.32450
C1328       C  0.81246683  0.22349471  0.12528556     0.36610
H1329       H  0.88994239  0.20639230  0.15972351     0.16980
O1330       O  0.89815579  0.28307463  0.15124133    -0.59950
H1331       H  0.79053337  0.28068357  0.11663710     0.16990
O1332       O  0.79313755  0.20664555  0.09697689    -0.60040
H1333       H  0.80519005  0.21094396  0.07247822     0.43990
H1334       H  0.90673322  0.28408794  0.12448799     0.43940
C1335       C  0.84215250  0.16168780  0.29454820    -0.05120
C1336       C  0.84054513  0.19648376  0.27120832    -0.32550
C1337       C  0.83626567  0.19606588  0.23088487     0.36700
C1338       C  0.84217931  0.16169005  0.20914237    -0.05480
C1339       C  0.84985591  0.12739237  0.23179180    -0.32450
C1340       C  0.85064326  0.12723265  0.27299888     0.36610
H1341       H  0.83600512  0.22484300  0.28364315     0.16980
O1342       O  0.82044261  0.22806435  0.21443238    -0.59950
H1343       H  0.85283514  0.09931657  0.21756356     0.16990
O1344       O  0.86161066  0.09322885  0.29052364    -0.60040
H1345       H  0.88589686  0.09681680  0.29443049     0.43990
H1346       H  0.79642357  0.22170485  0.21503234     0.43940
C1347       C  0.83101954  0.20637813  0.35274988    -0.05120
C1348       C  0.86185284  0.22663773  0.35051231    -0.32550
C1349       C  0.86318490  0.26825774  0.35484245     0.36700
C1350       C  0.83286666  0.28951207  0.35450957    -0.05480
C1351       C  0.80610776  0.26855987  0.37081618    -0.32450
C1352       C  0.80552809  0.22741965  0.37114079     0.36610
H1353       H  0.88416316  0.21047479  0.34341227     0.16980
O1354       O  0.89295072  0.28821603  0.35422515    -0.59950
H1355       H  0.78491193  0.28385236  0.38200955     0.16990
O1356       O  0.77989679  0.20847480  0.38884372    -0.60040
H1357       H  0.78789549  0.20317869  0.41581857     0.43990
H1358       H  0.90846421  0.27312044  0.33793803     0.43940
C1359       C  0.72063242  0.14796416  0.15925847    -0.05120
C1360       C  0.73847068  0.14666933  0.19467331    -0.32550
C1361       C  0.77287646  0.14302583  0.19715644     0.36700
C1362       C  0.79324619  0.14523082  0.16333758    -0.05480
C1363       C  0.77473303  0.13704495  0.12853495    -0.32450
C1364       C  0.73946602  0.13898194  0.12606409     0.36610
H1365       H  0.72655984  0.14989748  0.22213473     0.16980
O1366       O  0.78504609  0.13697182  0.23398166    -0.59950
H1367       H  0.78628801  0.13152943  0.10161125     0.16990
O1368       O  0.72425938  0.13602173  0.09021741    -0.60040
H1369       H  0.72548378  0.16278038  0.07838051     0.43990
H1370       H  0.78188103  0.10842404  0.23946727     0.43940
C1371       C  0.68145631  0.20800578  0.14375171    -0.05120
C1372       C  0.65056436  0.22911799  0.14439459    -0.32550
C1373       C  0.64964760  0.27104115  0.14452960     0.36700
C1374       C  0.67966912  0.29208030  0.14898042    -0.05480
C1375       C  0.70701606  0.27226584  0.13337638    -0.32450
C1376       C  0.70953238  0.23158078  0.13549447     0.36610
H1377       H  0.62749619  0.21314591  0.14729238     0.16980
O1378       O  0.61976187  0.29052916  0.14096983    -0.59950
H1379       H  0.72919066  0.28770139  0.12492079     0.16990
O1380       O  0.74090866  0.21703217  0.13512972    -0.60040
H1381       H  0.75061509  0.22288444  0.16116274     0.43990
H1382       H  0.61722812  0.29710442  0.11294207     0.43940
C1383       C  0.79466797  0.33698414  0.16461785    -0.05120
C1384       C  0.77655112  0.31230890  0.18926653    -0.32550
C1385       C  0.74250024  0.31541836  0.19402554     0.36700
C1386       C  0.72320948  0.34143630  0.17013370    -0.05480
C1387       C  0.74094518  0.36936710  0.14774624    -0.32450
C1388       C  0.77631575  0.36782358  0.14538504     0.36610
H1389       H  0.78964815  0.28983596  0.20577749     0.16980
O1390       O  0.72724938  0.29094352  0.22034053    -0.59950
H1391       H  0.72769185  0.39229889  0.13168765     0.16990
O1392       O  0.79215416  0.39745840  0.12585144    -0.60040
H1393       H  0.78437993  0.39556536  0.09841965     0.43990
H1394       H  0.74282463  0.26957336  0.22865039     0.43940
C1395       C  0.67042395  0.33759378  0.29586004    -0.05120
C1396       C  0.64993920  0.31313841  0.27292572    -0.32550
C1397       C  0.65107302  0.31250742  0.23214074     0.36700
C1398       C  0.67312043  0.33751755  0.21170958    -0.05480
C1399       C  0.68716313  0.36824579  0.23388356    -0.32450
C1400       C  0.68677008  0.36835781  0.27455962     0.36610
H1401       H  0.63200891  0.29403262  0.28533837     0.16980
O1402       O  0.62717135  0.29107755  0.21339197    -0.59950
H1403       H  0.70138595  0.39105262  0.21961170     0.16990
O1404       O  0.70640056  0.39586937  0.29291897    -0.60040
H1405       H  0.69823728  0.42214653  0.28380536     0.43990
H1406       H  0.62857736  0.26378788  0.22400712     0.43940
C1407       C  0.78945611  0.34045010  0.33529757    -0.05120
C1408       C  0.77191609  0.36355295  0.36226979    -0.32550
C1409       C  0.73686795  0.36065995  0.36574406     0.36700
C1410       C  0.71848702  0.33442964  0.34170311    -0.05480
C1411       C  0.73633479  0.31321624  0.31412413    -0.32450
C1412       C  0.76990341  0.31778443  0.30911586     0.36610
H1413       H  0.78506201  0.38330015  0.38143630     0.16980
O1414       O  0.72156252  0.38212337  0.39375861    -0.59950
H1415       H  0.72343613  0.29299636  0.29499367     0.16990
O1416       O  0.78300050  0.29978445  0.27750830    -0.60040
H1417       H  0.79837077  0.27923059  0.28753771     0.43990
H1418       H  0.72049218  0.40953526  0.38338578     0.43940
C1419       C  0.66558402  0.15623770  0.28487856    -0.05120
C1420       C  0.66180451  0.19198881  0.26416943    -0.32550
C1421       C  0.66903212  0.19460397  0.22507155     0.36700
C1422       C  0.66933459  0.16089636  0.20053131    -0.05480
C1423       C  0.66574421  0.12432633  0.22084829    -0.32450
C1424       C  0.66694532  0.12177362  0.26194874     0.36610
H1425       H  0.66298158  0.21991405  0.27855859     0.16980
O1426       O  0.68450580  0.22876663  0.21509519    -0.59950
H1427       H  0.66699129  0.09668259  0.20643572     0.16990
O1428       O  0.67295254  0.08566193  0.27928429    -0.60040
H1429       H  0.65318424  0.06935558  0.27309180     0.43990
H1430       H  0.70840744  0.22176781  0.21700630     0.43940
C1431       C  0.71571896  0.14690782  0.32749915    -0.05120
C1432       C  0.73369109  0.17296953  0.30437399    -0.32550
C1433       C  0.76767311  0.17807277  0.30807850     0.36700
C1434       C  0.78810330  0.15365117  0.33251222    -0.05480
C1435       C  0.77055201  0.12356199  0.35291813    -0.32450
C1436       C  0.73524525  0.11929516  0.34964425     0.36610
H1437       H  0.72095803  0.19508525  0.28688901     0.16980
O1438       O  0.77912653  0.21182089  0.29167238    -0.59950
H1439       H  0.78331196  0.10401202  0.37314976     0.16990
O1440       O  0.72080342  0.08824371  0.36849860    -0.60040
H1441       H  0.71733411  0.06792788  0.34835410     0.43990
H1442       H  0.76727320  0.23309254  0.30534522     0.43940
C1443       C  0.67269075  0.19839948  0.34720128    -0.05120
C1444       C  0.69928892  0.21736736  0.36620238    -0.32550
C1445       C  0.70016256  0.25833026  0.36926445     0.36700
C1446       C  0.67484353  0.28208138  0.35114143    -0.05480
C1447       C  0.64397899  0.26240275  0.34694859    -0.32450
C1448       C  0.64271045  0.22068869  0.34458201     0.36610
H1449       H  0.72008438  0.20059784  0.37784854     0.16980
O1450       O  0.72521917  0.27447882  0.39130084    -0.59950
H1451       H  0.62116139  0.27923177  0.34343960     0.16990
O1452       O  0.61337230  0.20304858  0.33408678    -0.60040
H1453       H  0.60293029  0.19571528  0.35894340     0.43990
H1454       H  0.71796673  0.27209260  0.41854831     0.43940
C1455       C  0.65594449  0.12807399  0.35448899    -0.05120
C1456       C  0.62647585  0.11107523  0.33920544    -0.32550
C1457       C  0.60550149  0.08838778  0.36197510     0.36700
C1458       C  0.61245205  0.08285743  0.40176876    -0.05480
C1459       C  0.64113468  0.09985252  0.41793234    -0.32450
C1460       C  0.66214603  0.12321593  0.39510543     0.36610
H1461       H  0.61811462  0.11641451  0.30966055     0.16980
O1462       O  0.57755501  0.07251815  0.34496537    -0.59950
H1463       H  0.64639338  0.09676598  0.44879888     0.16990
O1464       O  0.68831644  0.14185895  0.41310059    -0.60040
H1465       H  0.67825691  0.16357277  0.42803310     0.43990
H1466       H  0.58415858  0.04548214  0.33738872     0.43810
C1467       C  0.62132996  0.41140382  0.09421519    -0.05120
C1468       C  0.64761395  0.39063873  0.07780629    -0.32550
C1469       C  0.66903954  0.36705963  0.10118204     0.36700
C1470       C  0.66487316  0.36469241  0.14206171    -0.05480
C1471       C  0.63950261  0.38834671  0.15794303    -0.32450
C1472       C  0.61815147  0.41115505  0.13461345     0.36610
H1473       H  0.65037209  0.39078135  0.04658179     0.16980
O1474       O  0.69330834  0.34553274  0.08355766    -0.59950
H1475       H  0.63451977  0.38861337  0.18857826     0.16990
O1476       O  0.59315898  0.43203435  0.15168347    -0.60040
H1477       H  0.60260962  0.45849690  0.15670353     0.43990
H1478       H  0.68145508  0.32416738  0.06962122     0.43940
C1479       C  0.89782175  0.08331104  0.09492161    -0.05120
C1480       C  0.90660873  0.09210992  0.13333497    -0.32550
C1481       C  0.88757594  0.11791051  0.15532010     0.36700
C1482       C  0.85592661  0.13191209  0.14112765    -0.05480
C1483       C  0.85002939  0.12648196  0.10079122    -0.32450
C1484       C  0.86942458  0.10124921  0.07841653     0.36610
H1485       H  0.93001281  0.08136135  0.14565300     0.16980
O1486       O  0.90271767  0.13284948  0.18799717    -0.59950
H1487       H  0.83264309  0.14497300  0.08494958     0.16990
O1488       O  0.86244192  0.09793704  0.03945002    -0.60040
H1489       H  0.84585105  0.07648175  0.03746150     0.43990
H1490       H  0.92068533  0.15028989  0.17871213     0.43940
C1491       C  0.61981980  0.08695888  0.08499125    -0.05120
C1492       C  0.62251995  0.12672760  0.07518768    -0.32550
C1493       C  0.64494754  0.15120177  0.09492777     0.36700
C1494       C  0.66300005  0.13672041  0.12853950    -0.05480
C1495       C  0.66388431  0.09508752  0.13314035    -0.32450
C1496       C  0.64191762  0.07053468  0.11265906     0.36610
H1497       H  0.60777141  0.13872310  0.05108083     0.16980
O1498       O  0.65197379  0.18685264  0.07764836    -0.59950
H1499       H  0.68239991  0.08103108  0.15181012     0.16990
O1500       O  0.64216749  0.03066940  0.12002743    -0.60040
H1501       H  0.62699735  0.02688433  0.14206286     0.43990
H1502       H  0.63044137  0.20098446  0.07393671     0.43940
C1503       C  0.89267930  0.40630240  0.40988940    -0.05120
C1504       C  0.86781371  0.38380180  0.42708592    -0.32550
C1505       C  0.84582170  0.36125679  0.40419835     0.36700
C1506       C  0.84827492  0.36143697  0.36301010    -0.05480
C1507       C  0.87299293  0.38586425  0.34666978    -0.32450
C1508       C  0.89470643  0.40778420  0.36947841     0.36610
H1509       H  0.86647417  0.38209568  0.45840886     0.16980
O1510       O  0.82386954  0.33677750  0.42253233    -0.59950
H1511       H  0.87738072  0.38749547  0.31596971     0.16990
O1512       O  0.91820260  0.43067133  0.35180507    -0.60040
H1513       H  0.93558836  0.41193609  0.34340807     0.43990
H1514       H  0.80975844  0.35404591  0.43849621     0.43940
C1515       C  0.84525501  0.13490781  0.36855070    -0.05120
C1516       C  0.84531184  0.09339306  0.36405535    -0.32550
C1517       C  0.86714339  0.06850684  0.38556157     0.36700
C1518       C  0.88859738  0.08458590  0.41368570    -0.05480
C1519       C  0.88480102  0.12392251  0.42338906    -0.32450
C1520       C  0.86243939  0.14856639  0.40297824     0.36610
H1521       H  0.82878526  0.07988757  0.34300386     0.16980
O1522       O  0.86849341  0.02902739  0.37739624    -0.59950
H1523       H  0.89897352  0.13564961  0.44773472     0.16990
O1524       O  0.85542856  0.18407929  0.41991253    -0.60040
H1525       H  0.87687093  0.19825195  0.42267264     0.43990
H1526       H  0.85265370  0.01640642  0.39531566     0.43940
C1527       C  0.61679310  0.40234879  0.41258609    -0.05120
C1528       C  0.62550370  0.36451668  0.42557900    -0.32550
C1529       C  0.64732174  0.34083335  0.40456664     0.36700
C1530       C  0.65974708  0.35420178  0.36805527    -0.05480
C1531       C  0.65157862  0.39357948  0.35698441    -0.32450
C1532       C  0.63101253  0.41748388  0.37903180     0.36610
H1533       H  0.61532463  0.35316637  0.45235086     0.16980
O1534       O  0.65717862  0.30563157  0.42128728    -0.59950
H1535       H  0.65987138  0.40651158  0.33054494     0.16990
O1536       O  0.62438234  0.45552596  0.36699119    -0.60040
H1537       H  0.60483094  0.45366967  0.34912468     0.43990
H1538       H  0.63679039  0.28940734  0.42312084     0.43940
C1539       C  0.89755836  0.40114516  0.09192400    -0.05120
C1540       C  0.90423276  0.39778763  0.13161237    -0.32550
C1541       C  0.88417723  0.37559807  0.15583038     0.36700
C1542       C  0.85514632  0.35624981  0.14074482    -0.05480
C1543       C  0.84912960  0.35931550  0.10019003    -0.32450
C1544       C  0.86943905  0.38229480  0.07611687     0.36610
H1545       H  0.92605744  0.41182103  0.14413504     0.16980
O1546       O  0.89502557  0.37187366  0.19367478    -0.59950
H1547       H  0.82853105  0.34351990  0.08704308     0.16990
O1548       O  0.86270574  0.38415741  0.03697954    -0.60040
H1549       H  0.84655974  0.40618617  0.03344983     0.43990
H1550       H  0.91229748  0.35086784  0.19370808     0.43940
O1551       O  0.94872524  0.41811863  0.92419985    -0.74950
O1552       O  0.90956741  0.44941126  0.96004287    -0.53860
C1553       C  0.91852128  0.42561865  0.93338399     0.78780
O1554       O  0.56501207  0.42188438  0.57905638    -0.59550
O1555       O  0.60338796  0.45272467  0.54152998    -0.52580
C1556       C  0.59505968  0.42988913  0.56973466     0.70790
O1557       O  0.95284285  0.41504432  0.57641837    -0.74110
O1558       O  0.91149423  0.44775432  0.54277729    -0.54670
C1559       C  0.92200447  0.42239942  0.56827404     0.76800
O1560       O  0.56071196  0.41527597  0.92485969    -0.59250
O1561       O  0.60051292  0.45173495  0.95608019    -0.52370
C1562       C  0.59108625  0.42465673  0.93254675     0.73390
Zr1563     Zr  0.00508280  0.43660524  0.94270360     2.54710
O1564       O  0.00388945  0.36481488  0.94211632    -0.79820
O1565       O  0.50573644  0.44143267  0.87215390    -0.93230
Zr1566     Zr  0.00823345  0.43530343  0.55712070     2.64680
O1567       O  0.01114736  0.36363372  0.55338903    -0.98190
O1568       O  0.50832694  0.43235716  0.62776879    -0.80250
O1569       O  0.97405660  0.43462097  0.50047429    -0.83610
O1570       O  0.53920757  0.43534970  0.49948921    -2.18320
O1571       O  0.55727039  0.06989124  0.91878347    -0.67000
O1572       O  0.59888693  0.03909739  0.95374881    -0.51560
C1573       C  0.58813009  0.06255340  0.92654236     0.71770
O1574       O  0.95279760  0.06998200  0.57861625    -0.59900
O1575       O  0.91189597  0.03732943  0.54540176    -0.51880
C1576       C  0.92216316  0.06200343  0.57121246     0.73580
O1577       O  0.56359026  0.07264623  0.57432411    -0.71300
O1578       O  0.60229620  0.03751927  0.54130695    -0.49980
C1579       C  0.59368172  0.06373614  0.56588807     0.74960
O1580       O  0.94540302  0.07227012  0.92528046    -0.66630
O1581       O  0.90767573  0.03479114  0.95770471    -0.53830
C1582       C  0.91550610  0.06187859  0.93316548     0.73340
Zr1583     Zr  0.50255776  0.05316786  0.94254439     2.77540
O1584       O  0.00304582  0.12495024  0.94551431    -0.97380
O1585       O  0.99788965  0.05414265  0.87198053    -0.78200
Zr1586     Zr  0.50744925  0.05166653  0.55706833     2.70070
O1587       O  0.50605049  0.12348729  0.55681743    -0.79450
O1588       O  0.01037797  0.04691865  0.62764100    -0.98530
Zr1589     Zr  0.94112958  0.99342953  0.50144982     2.21500
Zr1590     Zr  0.57033672  0.49517211  0.99837922     2.11130
O1591       O  0.53751537  0.05405640  0.99879190    -2.47220
O1592       O  0.97230033  0.05315637  0.00081178    -0.79240
O1593       O  0.53632255  0.49553258  0.94086543    -0.71440
O1594       O  0.97531184  0.99322685  0.55892691    -2.32390
O1595       O  0.97139341  0.99427725  0.94250216    -2.28600
O1596       O  0.54036046  0.49377176  0.55729304    -0.73190
H1597       H  0.55372653  0.41255845  0.49966638     0.78800
H1598       H  0.96198114  0.99276991  0.58191945     0.79890
H1599       H  0.55141226  0.07720506  0.99826408     0.82120
H1600       H  0.95655712  0.99437579  0.92010121     0.79720
H1601       H  0.99809812  0.45761496  0.63556284     0.42760
H1602       H  0.53019199  0.03025259  0.63345405     0.41730
H1603       H  0.99483368  0.13077733  0.53188540     0.41410
H1604       H  0.52480538  0.13155681  0.95763086     0.39340
H1605       H  0.51175699  0.03161902  0.86379585     0.42470
H1606       H  0.98645114  0.45845264  0.86497622     0.37260
H1607       H  0.99750118  0.35717590  0.96875265     0.43370
H1608       H  0.53320039  0.35790406  0.54248593     0.39790
H1609       H  0.50487642  0.13372435  0.91812980     0.44710
H1610       H  0.49935858  0.41480725  0.86321256     0.43430
H1611       H  0.01308082  0.35460353  0.58078540     0.43570
H1612       H  0.51686103  0.07365705  0.63615694     0.43920
C1613       C  0.67712857  0.15618753  0.82909036    -0.02140
C1614       C  0.68010345  0.32743609  0.84021588    -0.02140
C1615       C  0.68435835  0.33422484  0.66784732    -0.02140
C1616       C  0.68351103  0.16325992  0.65744759    -0.02140
C1617       C  0.82688345  0.16299008  0.83763165    -0.02140
C1618       C  0.83188340  0.15924375  0.66450710    -0.02140
C1619       C  0.83330208  0.32801313  0.66526166    -0.02140
C1620       C  0.82798943  0.33262890  0.83704179    -0.02140
C1621       C  0.84228562  0.33239644  0.70998223    -0.05120
C1622       C  0.83073224  0.36680495  0.72889866    -0.32550
C1623       C  0.82880220  0.36889104  0.76956348     0.36700
C1624       C  0.83938712  0.33655374  0.79347174    -0.05480
C1625       C  0.85694235  0.30666302  0.77456655    -0.32450
C1626       C  0.85859307  0.30416697  0.73449289     0.36610
H1627       H  0.82046519  0.39114342  0.71177988     0.16980
O1628       O  0.81369263  0.40114122  0.78545110    -0.59950
H1629       H  0.86856973  0.28249069  0.78912384     0.16990
O1630       O  0.87686378  0.27346747  0.72115082    -0.60040
H1631       H  0.90042215  0.28028557  0.72678405     0.43990
H1632       H  0.82977613  0.42303193  0.78281735     0.43940
C1633       C  0.83723539  0.20139300  0.64540805    -0.05120
C1634       C  0.86759980  0.22199404  0.65068636    -0.32550
C1635       C  0.86836209  0.26381958  0.64807544     0.36700
C1636       C  0.83791196  0.28498452  0.64824055    -0.05480
C1637       C  0.81156941  0.26476558  0.62920813    -0.32450
C1638       C  0.81246752  0.22349393  0.62528605     0.36610
H1639       H  0.88994305  0.20639167  0.65972419     0.16980
O1640       O  0.89815650  0.28307392  0.65124146    -0.59950
H1641       H  0.79053413  0.28068274  0.61663712     0.16990
O1642       O  0.79313817  0.20664454  0.59697758    -0.60040
H1643       H  0.80519049  0.21094299  0.57247880     0.43990
H1644       H  0.90673192  0.28409124  0.62448730     0.43940
C1645       C  0.84215233  0.16168779  0.79454901    -0.05120
C1646       C  0.84054522  0.19648369  0.77120905    -0.32550
C1647       C  0.83626622  0.19606573  0.73088556     0.36700
C1648       C  0.84217989  0.16168976  0.70914324    -0.05480
C1649       C  0.84985635  0.12739216  0.73179284    -0.32450
C1650       C  0.85064344  0.12723261  0.77299991     0.36610
H1651       H  0.83600506  0.22484295  0.78364375     0.16980
O1652       O  0.82044346  0.22806425  0.71443281    -0.59950
H1653       H  0.85283568  0.09931630  0.71756474     0.16990
O1654       O  0.86161106  0.09322901  0.79052487    -0.60040
H1655       H  0.88589719  0.09681735  0.79443203     0.43990
H1656       H  0.79642438  0.22170490  0.71503246     0.43940
C1657       C  0.83101901  0.20637830  0.85275044    -0.05120
C1658       C  0.86185239  0.22663780  0.85051310    -0.32550
C1659       C  0.86318446  0.26825787  0.85484278     0.36700
C1660       C  0.83286625  0.28951229  0.85450953    -0.05480
C1661       C  0.80610724  0.26856026  0.87081606    -0.32450
C1662       C  0.80552744  0.22742005  0.87114087     0.36610
H1663       H  0.88416274  0.21047474  0.84341346     0.16980
O1664       O  0.89295032  0.28821607  0.85422563    -0.59950
H1665       H  0.78491141  0.28385292  0.88200921     0.16990
O1666       O  0.77989597  0.20847540  0.88884366    -0.60040
H1667       H  0.78789438  0.20317968  0.91581869     0.43990
H1668       H  0.90846388  0.27312034  0.83793873     0.43940
C1669       C  0.72063301  0.14796341  0.65925921    -0.05120
C1670       C  0.73847119  0.14666901  0.69467410    -0.32550
C1671       C  0.77287698  0.14302565  0.69715735     0.36700
C1672       C  0.79324679  0.14523029  0.66333854    -0.05480
C1673       C  0.77473372  0.13704401  0.62853596    -0.32450
C1674       C  0.73946671  0.13898097  0.62606497     0.36610
H1675       H  0.72656025  0.14989745  0.72213543     0.16980
O1676       O  0.78504654  0.13697213  0.73398267    -0.59950
H1677       H  0.78628876  0.13152816  0.60161235     0.16990
O1678       O  0.72426018  0.13602044  0.59021826    -0.60040
H1679       H  0.72548459  0.16277900  0.57838117     0.43990
H1680       H  0.78188140  0.10842444  0.73946867     0.43940
C1681       C  0.68145711  0.20800502  0.64375192    -0.05120
C1682       C  0.65056515  0.22911725  0.64439423    -0.32550
C1683       C  0.64964839  0.27104041  0.64452882     0.36700
C1684       C  0.67966989  0.29207957  0.64897973    -0.05480
C1685       C  0.70701693  0.27226496  0.63337611    -0.32450
C1686       C  0.70953326  0.23157992  0.63549481     0.36610
H1687       H  0.62749694  0.21314521  0.64729189     0.16980
O1688       O  0.61976268  0.29052842  0.64096862    -0.59950
H1689       H  0.72919158  0.28770041  0.62492056     0.16990
O1690       O  0.74090957  0.21703131  0.63513083    -0.60040
H1691       H  0.75061570  0.22288403  0.66116390     0.43990
H1692       H  0.61722906  0.29710330  0.61294078     0.43940
C1693       C  0.79466864  0.33698360  0.66461743    -0.05120
C1694       C  0.77655175  0.31230859  0.68926627    -0.32550
C1695       C  0.74250086  0.31541800  0.69402507     0.36700
C1696       C  0.72321013  0.34143573  0.67013296    -0.05480
C1697       C  0.74094586  0.36936628  0.64774523    -0.32450
C1698       C  0.77631644  0.36782277  0.64538417     0.36610
H1699       H  0.78964875  0.28983581  0.70577748     0.16980
O1700       O  0.72724998  0.29094330  0.72034017    -0.59950
H1701       H  0.72769254  0.39229783  0.63168629     0.16990
O1702       O  0.79215485  0.39745731  0.62585016    -0.60040
H1703       H  0.78438074  0.39556375  0.59841837     0.43990
H1704       H  0.74282505  0.26957278  0.72864958     0.43940
C1705       C  0.67042392  0.33759365  0.79585893    -0.05120
C1706       C  0.64993966  0.31313773  0.77292465    -0.32550
C1707       C  0.65107354  0.31250683  0.73213969     0.36700
C1708       C  0.67312100  0.33751698  0.71170866    -0.05480
C1709       C  0.68716347  0.36824543  0.73388260    -0.32450
C1710       C  0.68676980  0.36835786  0.77455862     0.36610
H1711       H  0.63200965  0.29403156  0.78533731     0.16980
O1712       O  0.62717178  0.29107717  0.71339082    -0.59950
H1713       H  0.70138626  0.39105230  0.71961078     0.16990
O1714       O  0.70639913  0.39587031  0.79291832    -0.60040
H1715       H  0.69823520  0.42214709  0.78380444     0.43990
H1716       H  0.62857737  0.26378754  0.72400615     0.43940
C1717       C  0.78945585  0.34045035  0.83529699    -0.05120
C1718       C  0.77191575  0.36355383  0.86226865    -0.32550
C1719       C  0.73686756  0.36066113  0.86574261     0.36700
C1720       C  0.71848672  0.33443026  0.84170216    -0.05480
C1721       C  0.73633460  0.31321639  0.81412358    -0.32450
C1722       C  0.76990325  0.31778444  0.80911542     0.36610
H1723       H  0.78506163  0.38330136  0.88143486     0.16980
O1724       O  0.72156192  0.38212573  0.89375612    -0.59950
H1725       H  0.72343599  0.29299622  0.79499336     0.16990
O1726       O  0.78300046  0.29978410  0.77750813    -0.60040
H1727       H  0.79837083  0.27923048  0.78753782     0.43990
H1728       H  0.72049024  0.40953682  0.88338135     0.43940
C1729       C  0.66558359  0.15623801  0.78487891    -0.05120
C1730       C  0.66180404  0.19198893  0.76416947    -0.32550
C1731       C  0.66903207  0.19460380  0.72507167     0.36700
C1732       C  0.66933498  0.16089598  0.70053171    -0.05480
C1733       C  0.66574460  0.12432609  0.72084893    -0.32450
C1734       C  0.66694523  0.12177374  0.76194939     0.36610
H1735       H  0.66298076  0.21991427  0.77855846     0.16980
O1736       O  0.68450578  0.22876644  0.71509529    -0.59950
H1737       H  0.66699206  0.09668224  0.70643663     0.16990
O1738       O  0.67295237  0.08566222  0.77928531    -0.60040
H1739       H  0.65318413  0.06935579  0.77309280     0.43990
H1740       H  0.70840741  0.22176768  0.71700681     0.43940
C1741       C  0.71571835  0.14690840  0.82749975    -0.05120
C1742       C  0.73369059  0.17296982  0.80437439    -0.32550
C1743       C  0.76767267  0.17807278  0.80807869     0.36700
C1744       C  0.78810277  0.15365134  0.83251267    -0.05480
C1745       C  0.77055134  0.12356247  0.85291886    -0.32450
C1746       C  0.73524456  0.11929582  0.84964507     0.36610
H1747       H  0.72095760  0.19508547  0.78688925     0.16980
O1748       O  0.77912630  0.21182049  0.79167198    -0.59950
H1749       H  0.78331123  0.10401260  0.87315066     0.16990
O1750       O  0.72080262  0.08824466  0.86849976    -0.60040
H1751       H  0.71733326  0.06792860  0.84835549     0.43990
H1752       H  0.76727307  0.23309248  0.80534444     0.43940
C1753       C  0.67269015  0.19840035  0.84720137    -0.05120
C1754       C  0.69928834  0.21736825  0.86620236    -0.32550
C1755       C  0.70016210  0.25833115  0.86926418     0.36700
C1756       C  0.67484303  0.28208226  0.85114121    -0.05480
C1757       C  0.64397843  0.26240375  0.84694868    -0.32450
C1758       C  0.64270986  0.22068965  0.84458208     0.36610
H1759       H  0.72008375  0.20059873  0.87784860     0.16980
O1760       O  0.72521893  0.27447981  0.89130018    -0.59950
H1761       H  0.62116092  0.27923289  0.84343928     0.16990
O1762       O  0.61337168  0.20304957  0.83408689    -0.60040
H1763       H  0.60292972  0.19571624  0.85894352     0.43990
H1764       H  0.71796796  0.27209101  0.91854803     0.43940
C1765       C  0.65594376  0.12807487  0.85448944    -0.05120
C1766       C  0.62647523  0.11107595  0.83920580    -0.32550
C1767       C  0.60550090  0.08838841  0.86197540     0.36700
C1768       C  0.61245139  0.08285811  0.90176907    -0.05480
C1769       C  0.64113385  0.09985349  0.91793278    -0.32450
C1770       C  0.66214515  0.12321702  0.89510592     0.36610
H1771       H  0.61811409  0.11641510  0.80966085     0.16980
O1772       O  0.57755454  0.07251858  0.84496558    -0.59950
H1773       H  0.64639245  0.09676705  0.94879935     0.16990
O1774       O  0.68831540  0.14186029  0.91310115    -0.60040
H1775       H  0.67825570  0.16357420  0.92803339     0.43990
H1776       H  0.58415825  0.04548262  0.83738896     0.43810
C1777       C  0.62133061  0.41140320  0.59421445    -0.05120
C1778       C  0.64761437  0.39063779  0.57780542    -0.32550
C1779       C  0.66903999  0.36705868  0.60118111     0.36700
C1780       C  0.66487383  0.36469172  0.64206083    -0.05480
C1781       C  0.63950350  0.38834631  0.65794222    -0.32450
C1782       C  0.61815238  0.41115471  0.63461272     0.36610
H1783       H  0.65037230  0.39078021  0.54658088     0.16980
O1784       O  0.69330859  0.34553151  0.58355667    -0.59950
H1785       H  0.63452080  0.38861322  0.68857748     0.16990
O1786       O  0.59316015  0.43203436  0.65168285    -0.60040
H1787       H  0.60261119  0.45849664  0.65670326     0.43990
H1788       H  0.68145515  0.32416609  0.56962052     0.43940
C1789       C  0.89782240  0.08331059  0.59492241    -0.05120
C1790       C  0.90660938  0.09210934  0.63333580    -0.32550
C1791       C  0.88757653  0.11790979  0.65532106     0.36700
C1792       C  0.85592722  0.13191145  0.64112861    -0.05480
C1793       C  0.85003000  0.12648139  0.60079217    -0.32450
C1794       C  0.86942519  0.10124871  0.57841742     0.36610
H1795       H  0.93001348  0.08136077  0.64565377     0.16980
O1796       O  0.90271820  0.13284857  0.68799825    -0.59950
H1797       H  0.83264369  0.14497244  0.58495056     0.16990
O1798       O  0.86244247  0.09793661  0.53945091    -0.60040
H1799       H  0.84585161  0.07648131  0.53746239     0.43990
H1800       H  0.92068576  0.15028919  0.67871333     0.43940
C1801       C  0.61982047  0.08695831  0.58499161    -0.05120
C1802       C  0.62252105  0.12672690  0.57518772    -0.32550
C1803       C  0.64494869  0.15120097  0.59492787     0.36700
C1804       C  0.66300076  0.13671970  0.62853994    -0.05480
C1805       C  0.66388469  0.09508683  0.63314110    -0.32450
C1806       C  0.64191794  0.07053408  0.61265979     0.36610
H1807       H  0.60777282  0.13872235  0.55108060     0.16980
O1808       O  0.65197546  0.18685156  0.57764820    -0.59950
H1809       H  0.68240011  0.08103033  0.65181105     0.16990
O1810       O  0.64216744  0.03066886  0.62002845    -0.60040
H1811       H  0.62699741  0.02688420  0.64206405     0.43990
H1812       H  0.63044320  0.20098363  0.57393607     0.43940
C1813       C  0.89267881  0.40630257  0.90988921    -0.05120
C1814       C  0.86781308  0.38380214  0.92708567    -0.32550
C1815       C  0.84582107  0.36125722  0.90419803     0.36700
C1816       C  0.84827452  0.36143722  0.86300981    -0.05480
C1817       C  0.87299260  0.38586442  0.84666955    -0.32450
C1818       C  0.89470604  0.40778439  0.86947824     0.36610
H1819       H  0.86647340  0.38209611  0.95840861     0.16980
O1820       O  0.82386865  0.33677821  0.92253192    -0.59950
H1821       H  0.87738049  0.38749559  0.81596950     0.16990
O1822       O  0.91820222  0.43067155  0.85180496    -0.60040
H1823       H  0.93558792  0.41193632  0.84340779     0.43990
H1824       H  0.80975735  0.35404688  0.93849531     0.43940
C1825       C  0.84525421  0.13490792  0.86855143    -0.05120
C1826       C  0.84531104  0.09339321  0.86405596    -0.32550
C1827       C  0.86714273  0.06850701  0.88556200     0.36700
C1828       C  0.88859670  0.08458607  0.91368615    -0.05480
C1829       C  0.88480010  0.12392258  0.92338984    -0.32450
C1830       C  0.86243837  0.14856643  0.90297910     0.36610
H1831       H  0.82878454  0.07988779  0.84300433     0.16980
O1832       O  0.86849297  0.02902764  0.87739637    -0.59950
H1833       H  0.89897249  0.13564961  0.94773560     0.16990
O1834       O  0.85542722  0.18407919  0.91991352    -0.60040
H1835       H  0.87686949  0.19825200  0.92267386     0.43990
H1836       H  0.85265333  0.01640640  0.89531571     0.43940
C1837       C  0.61679291  0.40234981  0.91258506    -0.05120
C1838       C  0.62550636  0.36451917  0.92557980    -0.32550
C1839       C  0.64732421  0.34083595  0.90456702     0.36700
C1840       C  0.65974672  0.35420292  0.86805379    -0.05480
C1841       C  0.65157518  0.39357918  0.85698073    -0.32450
C1842       C  0.63100920  0.41748355  0.87902830     0.36610
H1843       H  0.61532945  0.35316982  0.95235321     0.16980
O1844       O  0.65718317  0.30563539  0.92128850    -0.59950
H1845       H  0.65986518  0.40651002  0.83053934     0.16990
O1846       O  0.62437612  0.45552430  0.86698560    -0.60040
H1847       H  0.60482379  0.45366519  0.84912083     0.43990
H1848       H  0.63679581  0.28940975  0.92312290     0.43940
C1849       C  0.89755903  0.40114470  0.59192388    -0.05120
C1850       C  0.90423322  0.39778750  0.63161231    -0.32550
C1851       C  0.88417775  0.37559782  0.65583028     0.36700
C1852       C  0.85514707  0.35624917  0.64074462    -0.05480
C1853       C  0.84913060  0.35931447  0.60018975    -0.32450
C1854       C  0.86944003  0.38229381  0.57611662     0.36610
H1855       H  0.92605770  0.41182124  0.64413506     0.16980
O1856       O  0.89502594  0.37187370  0.69367476    -0.59950
H1857       H  0.82853226  0.34351853  0.58704274     0.16990
O1858       O  0.86270702  0.38415597  0.53697922    -0.60040
H1859       H  0.84656084  0.40618448  0.53344912     0.43990
H1860       H  0.91229791  0.35086794  0.69370828     0.43940
O1861       O  0.94872565  0.91811855  0.42420001    -0.74950
O1862       O  0.90956785  0.94941125  0.46004302    -0.53860
C1863       C  0.91852170  0.92561859  0.43338415     0.78780
O1864       O  0.56501142  0.92188478  0.07905677    -0.59550
O1865       O  0.60338738  0.95272502  0.04153044    -0.52580
C1866       C  0.59505904  0.92988960  0.06973521     0.70790
O1867       O  0.95284226  0.91504457  0.07641837    -0.74110
O1868       O  0.91149367  0.94775457  0.04277728    -0.54670
C1869       C  0.92200388  0.92239974  0.06827410     0.76800
O1870       O  0.56071223  0.91527507  0.42486065    -0.59250
O1871       O  0.60051320  0.95173503  0.45607998    -0.52370
C1872       C  0.59108651  0.92465619  0.43254726     0.73390
Zr1873     Zr  0.00508318  0.93660517  0.44270380     2.54710
O1874       O  0.00388941  0.86481483  0.44211621    -0.79820
O1875       O  0.50573711  0.94143291  0.37215414    -0.93230
Zr1876     Zr  0.00823290  0.93530347  0.05712053     2.64680
O1877       O  0.01114693  0.86363379  0.05338840    -0.98190
O1878       O  0.50832619  0.93235667  0.12776859    -0.80250
O1879       O  0.97405613  0.93462098  0.00047406    -0.83610
O1880       O  0.53920713  0.93534975  0.99948907    -2.18320
O1881       O  0.55727098  0.56989078  0.41878327    -0.67000
O1882       O  0.59888750  0.53909709  0.45374876    -0.51560
C1883       C  0.58813068  0.56255292  0.42654216     0.71770
O1884       O  0.95279696  0.56998229  0.07861566    -0.59900
O1885       O  0.91189536  0.53732959  0.04540126    -0.51880
C1886       C  0.92216252  0.56200374  0.07121183     0.73580
O1887       O  0.56358964  0.57264662  0.07432375    -0.71300
O1888       O  0.60229566  0.53751957  0.04130679    -0.49980
C1889       C  0.59368112  0.56373656  0.06588777     0.74960
O1890       O  0.94540366  0.57226984  0.42528024    -0.66630
O1891       O  0.90767628  0.53479112  0.45770465    -0.53830
C1892       C  0.91550671  0.56187839  0.43316523     0.73340
Zr1893     Zr  0.50255835  0.55316780  0.44254453     2.77540
O1894       O  0.00304655  0.62495016  0.44551481    -0.97380
O1895       O  0.99789023  0.55414306  0.37198067    -0.78200
Zr1896     Zr  0.50744868  0.55166663  0.05706813     2.70070
O1897       O  0.50604990  0.62348739  0.05681714    -0.79450
O1898       O  0.01037730  0.54691884  0.12764080    -0.98530
Zr1899     Zr  0.94112911  0.49342952  0.00144966     2.21500
Zr1900     Zr  0.57033718  0.99517203  0.49837925     2.11130
O1901       O  0.53751595  0.55405637  0.49879204    -2.47220
O1902       O  0.97230089  0.55315634  0.50081194    -0.79240
O1903       O  0.53632299  0.99553245  0.44086551    -0.71440
O1904       O  0.97531131  0.49322690  0.05892677    -2.32390
O1905       O  0.97139392  0.49427722  0.44250234    -2.28600
O1906       O  0.54035987  0.99377184  0.05729294    -0.73190
H1907       H  0.55372612  0.91255852  0.99966620     0.78800
H1908       H  0.96198060  0.49277000  0.08191930     0.79890
H1909       H  0.55141287  0.57720500  0.49826422     0.82120
H1910       H  0.95655764  0.49437574  0.42010139     0.79720
H1911       H  0.99809882  0.95761523  0.13556282     0.42760
H1912       H  0.53019153  0.53025315  0.13345392     0.41730
H1913       H  0.99483261  0.63077738  0.03188539     0.41410
H1914       H  0.52480639  0.63155664  0.45763068     0.39340
H1915       H  0.51175716  0.53161912  0.36379587     0.42470
H1916       H  0.98645170  0.95845269  0.36497641     0.37260
H1917       H  0.99750193  0.85717576  0.46875279     0.43370
H1918       H  0.53320027  0.85790422  0.04248613     0.39790
H1919       H  0.50487651  0.63372440  0.41813025     0.44710
H1920       H  0.49935950  0.91480745  0.36321265     0.43430
H1921       H  0.01307961  0.85460339  0.08078476     0.43570
H1922       H  0.51686004  0.57365740  0.13615672     0.43920
C1923       C  0.67712918  0.65618678  0.32908996    -0.02140
C1924       C  0.68010375  0.82743539  0.34021686    -0.02140
C1925       C  0.68435768  0.83422548  0.16784817    -0.02140
C1926       C  0.68351041  0.66326058  0.15744711    -0.02140
C1927       C  0.82688399  0.66298991  0.33763104    -0.02140
C1928       C  0.83188279  0.65924431  0.16450622    -0.02140
C1929       C  0.83330141  0.82801367  0.16526185    -0.02140
C1930       C  0.82798969  0.83262871  0.33704210    -0.02140
C1931       C  0.84228510  0.83239673  0.20998241    -0.05120
C1932       C  0.83073190  0.86680521  0.22889905    -0.32550
C1933       C  0.82880213  0.86889116  0.26956392     0.36700
C1934       C  0.83938718  0.83655377  0.29347198    -0.05480
C1935       C  0.85694223  0.80666310  0.27456652    -0.32450
C1936       C  0.85859258  0.80416710  0.23449285     0.36610
H1937       H  0.82046481  0.89114377  0.21178044     0.16980
O1938       O  0.81369268  0.90114129  0.28545179    -0.59950
H1939       H  0.86856966  0.78249068  0.28912360     0.16990
O1940       O  0.87686289  0.77346737  0.22115055    -0.60040
H1941       H  0.90042136  0.78028501  0.22678374     0.43990
H1942       H  0.82977618  0.92303200  0.28281800     0.43940
C1943       C  0.83723474  0.70139367  0.14540740    -0.05120
C1944       C  0.86759914  0.72199471  0.15068580    -0.32550
C1945       C  0.86836142  0.76382027  0.14807511     0.36700
C1946       C  0.83791127  0.78498517  0.14824045    -0.05480
C1947       C  0.81156869  0.76476635  0.12920797    -0.32450
C1948       C  0.81246684  0.72349472  0.12528558     0.36610
H1949       H  0.88994240  0.70639231  0.15972354     0.16980
O1950       O  0.89815580  0.78307464  0.15124135    -0.59950
H1951       H  0.79053338  0.78068359  0.11663712     0.16990
O1952       O  0.79313756  0.70664556  0.09697691    -0.60040
H1953       H  0.80519006  0.71094399  0.07247824     0.43990
H1954       H  0.90673322  0.78408797  0.12448800     0.43940
C1955       C  0.84215250  0.66168778  0.29454821    -0.05120
C1956       C  0.84054513  0.69648374  0.27120834    -0.32550
C1957       C  0.83626568  0.69606588  0.23088489     0.36700
C1958       C  0.84217932  0.66169006  0.20914239    -0.05480
C1959       C  0.84985592  0.62739236  0.23179180    -0.32450
C1960       C  0.85064327  0.62723264  0.27299889     0.36610
H1961       H  0.83600513  0.72484298  0.28364318     0.16980
O1962       O  0.82044263  0.72806435  0.21443241    -0.59950
H1963       H  0.85283515  0.59931657  0.21756356     0.16990
O1964       O  0.86161066  0.59322883  0.29052364    -0.60040
H1965       H  0.88589686  0.59681677  0.29443049     0.43990
H1966       H  0.79642359  0.72170486  0.21503236     0.43940
C1967       C  0.83101954  0.70637809  0.35274990    -0.05120
C1968       C  0.86185284  0.72663770  0.35051233    -0.32550
C1969       C  0.86318489  0.76825771  0.35484247     0.36700
C1970       C  0.83286665  0.78951204  0.35450960    -0.05480
C1971       C  0.80610775  0.76855983  0.37081620    -0.32450
C1972       C  0.80552808  0.72741962  0.37114081     0.36610
H1973       H  0.88416316  0.71047477  0.34341230     0.16980
O1974       O  0.89295071  0.78821601  0.35422517    -0.59950
H1975       H  0.78491191  0.78385232  0.38200956     0.16990
O1976       O  0.77989678  0.70847475  0.38884373    -0.60040
H1977       H  0.78789548  0.70317864  0.41581858     0.43990
H1978       H  0.90846420  0.77312042  0.33793806     0.43940
C1979       C  0.72063244  0.64796415  0.15925847    -0.05120
C1980       C  0.73847069  0.64666932  0.19467331    -0.32550
C1981       C  0.77287647  0.64302583  0.19715644     0.36700
C1982       C  0.79324620  0.64523083  0.16333759    -0.05480
C1983       C  0.77473305  0.63704495  0.12853496    -0.32450
C1984       C  0.73946603  0.63898195  0.12606409     0.36610
H1985       H  0.72655985  0.64989746  0.22213473     0.16980
O1986       O  0.78504610  0.63697183  0.23398166    -0.59950
H1987       H  0.78628803  0.63152944  0.10161125     0.16990
O1988       O  0.72425941  0.63602174  0.09021741    -0.60040
H1989       H  0.72548380  0.66278039  0.07838051     0.43990
H1990       H  0.78188104  0.60842405  0.23946728     0.43940
C1991       C  0.68145633  0.70800577  0.14375171    -0.05120
C1992       C  0.65056438  0.72911798  0.14439459    -0.32550
C1993       C  0.64964761  0.77104114  0.14452960     0.36700
C1994       C  0.67966913  0.79208029  0.14898042    -0.05480
C1995       C  0.70701607  0.77226584  0.13337638    -0.32450
C1996       C  0.70953239  0.73158078  0.13549448     0.36610
H1997       H  0.62749621  0.71314590  0.14729237     0.16980
O1998       O  0.61976188  0.79052915  0.14096982    -0.59950
H1999       H  0.72919067  0.78770139  0.12492079     0.16990
O2000       O  0.74090868  0.71703217  0.13512976    -0.60040
H2001       H  0.75061510  0.72288445  0.16116278     0.43990
H2002       H  0.61722814  0.79710441  0.11294207     0.43940
C2003       C  0.79466798  0.83698415  0.16461787    -0.05120
C2004       C  0.77655113  0.81230891  0.18926655    -0.32550
C2005       C  0.74250025  0.81541836  0.19402555     0.36700
C2006       C  0.72320949  0.84143630  0.17013371    -0.05480
C2007       C  0.74094519  0.86936710  0.14774625    -0.32450
C2008       C  0.77631576  0.86782358  0.14538505     0.36610
H2009       H  0.78964816  0.78983596  0.20577750     0.16980
O2010       O  0.72724939  0.79094351  0.22034053    -0.59950
H2011       H  0.72769186  0.89229889  0.13168766     0.16990
O2012       O  0.79215416  0.89745841  0.12585145    -0.60040
H2013       H  0.78437994  0.89556536  0.09841966     0.43990
H2014       H  0.74282464  0.76957334  0.22865037     0.43940
C2015       C  0.67042394  0.83759375  0.29586005    -0.05120
C2016       C  0.64993919  0.81313839  0.27292572    -0.32550
C2017       C  0.65107302  0.81250741  0.23214074     0.36700
C2018       C  0.67312043  0.83751753  0.21170959    -0.05480
C2019       C  0.68716313  0.86824577  0.23388357    -0.32450
C2020       C  0.68677009  0.86835777  0.27455964     0.36610
H2021       H  0.63200891  0.79403260  0.28533837     0.16980
O2022       O  0.62717135  0.79107754  0.21339197    -0.59950
H2023       H  0.70138596  0.89105259  0.21961172     0.16990
O2024       O  0.70640058  0.89586932  0.29291898    -0.60040
H2025       H  0.69823732  0.92214649  0.28380538     0.43990
H2026       H  0.62857736  0.76378786  0.22400711     0.43940
C2027       C  0.78945610  0.84045006  0.33529759    -0.05120
C2028       C  0.77191607  0.86355291  0.36226982    -0.32550
C2029       C  0.73686794  0.86065990  0.36574409     0.36700
C2030       C  0.71848701  0.83442960  0.34170312    -0.05480
C2031       C  0.73633479  0.81321620  0.31412414    -0.32450
C2032       C  0.76990341  0.81778439  0.30911587     0.36610
H2033       H  0.78506199  0.88330010  0.38143633     0.16980
O2034       O  0.72156250  0.88212330  0.39375864    -0.59950
H2035       H  0.72343612  0.79299632  0.29499368     0.16990
O2036       O  0.78300049  0.79978442  0.27750831    -0.60040
H2037       H  0.79837077  0.77923056  0.28753772     0.43990
H2038       H  0.72049219  0.90953520  0.38338585     0.43940
C2039       C  0.66558402  0.65623766  0.28487856    -0.05120
C2040       C  0.66180451  0.69198878  0.26416943    -0.32550
C2041       C  0.66903212  0.69460394  0.22507155     0.36700
C2042       C  0.66933460  0.66089634  0.20053130    -0.05480
C2043       C  0.66574422  0.62432630  0.22084827    -0.32450
C2044       C  0.66694533  0.62177359  0.26194872     0.36610
H2045       H  0.66298159  0.71991401  0.27855859     0.16980
O2046       O  0.68450580  0.72876661  0.21509519    -0.59950
H2047       H  0.66699130  0.59668257  0.20643570     0.16990
O2048       O  0.67295254  0.58566190  0.27928427    -0.60040
H2049       H  0.65318424  0.56935555  0.27309178     0.43990
H2050       H  0.70840744  0.72176780  0.21700632     0.43940
C2051       C  0.71571896  0.64690778  0.32749915    -0.05120
C2052       C  0.73369109  0.67296950  0.30437400    -0.32550
C2053       C  0.76767311  0.67807273  0.30807851     0.36700
C2054       C  0.78810331  0.65365114  0.33251223    -0.05480
C2055       C  0.77055201  0.62356195  0.35291813    -0.32450
C2056       C  0.73524525  0.61929512  0.34964425     0.36610
H2057       H  0.72095803  0.69508522  0.28688902     0.16980
O2058       O  0.77912653  0.71182085  0.29167240    -0.59950
H2059       H  0.78331197  0.60401198  0.37314976     0.16990
O2060       O  0.72080342  0.58824367  0.36849859    -0.60040
H2061       H  0.71733411  0.56792783  0.34835409     0.43990
H2062       H  0.76727320  0.73309251  0.30534524     0.43940
C2063       C  0.67269075  0.69839943  0.34720128    -0.05120
C2064       C  0.69928891  0.71736731  0.36620239    -0.32550
C2065       C  0.70016254  0.75833021  0.36926445     0.36700
C2066       C  0.67484352  0.78208134  0.35114143    -0.05480
C2067       C  0.64397898  0.76240270  0.34694857    -0.32450
C2068       C  0.64271044  0.72068864  0.34458201     0.36610
H2069       H  0.72008437  0.70059780  0.37784854     0.16980
O2070       O  0.72521915  0.77447877  0.39130086    -0.59950
H2071       H  0.62116138  0.77923172  0.34343958     0.16990
O2072       O  0.61337229  0.70304852  0.33408677    -0.60040
H2073       H  0.60293028  0.69571523  0.35894338     0.43990
H2074       H  0.71796669  0.77209259  0.41854832     0.43940
C2075       C  0.65594448  0.62807394  0.35448898    -0.05120
C2076       C  0.62647585  0.61107518  0.33920543    -0.32550
C2077       C  0.60550148  0.58838775  0.36197509     0.36700
C2078       C  0.61245203  0.58285739  0.40176875    -0.05480
C2079       C  0.64113467  0.59985248  0.41793233    -0.32450
C2080       C  0.66214603  0.62321588  0.39510542     0.36610
H2081       H  0.61811462  0.61641447  0.30966054     0.16980
O2082       O  0.57755499  0.57251812  0.34496536    -0.59950
H2083       H  0.64639337  0.59676593  0.44879888     0.16990
O2084       O  0.68831643  0.64185890  0.41310059    -0.60040
H2085       H  0.67825690  0.66357271  0.42803310     0.43990
H2086       H  0.58415856  0.54548211  0.33738871     0.43810
C2087       C  0.62132994  0.91140381  0.09421521    -0.05120
C2088       C  0.64761394  0.89063872  0.07780631    -0.32550
C2089       C  0.66903953  0.86705963  0.10118205     0.36700
C2090       C  0.66487316  0.86469241  0.14206173    -0.05480
C2091       C  0.63950260  0.88834670  0.15794305    -0.32450
C2092       C  0.61815145  0.91115503  0.13461347     0.36610
H2093       H  0.65037208  0.89078135  0.04658181     0.16980
O2094       O  0.69330834  0.84553275  0.08355767    -0.59950
H2095       H  0.63451977  0.88861335  0.18857828     0.16990
O2096       O  0.59315897  0.93203432  0.15168351    -0.60040
H2097       H  0.60260959  0.95849688  0.15670355     0.43990
H2098       H  0.68145508  0.82416739  0.06962122     0.43940
C2099       C  0.89782176  0.58331107  0.09492162    -0.05120
C2100       C  0.90660874  0.59210993  0.13333497    -0.32550
C2101       C  0.88757595  0.61791052  0.15532011     0.36700
C2102       C  0.85592663  0.63191211  0.14112766    -0.05480
C2103       C  0.85002941  0.62648199  0.10079123    -0.32450
C2104       C  0.86942460  0.60124924  0.07841654     0.36610
H2105       H  0.93001282  0.58136135  0.14565300     0.16980
O2106       O  0.90271768  0.63284948  0.18799718    -0.59950
H2107       H  0.83264311  0.64497304  0.08494959     0.16990
O2108       O  0.86244193  0.59793709  0.03945002    -0.60040
H2109       H  0.84585106  0.57648180  0.03746149     0.43990
H2110       H  0.92068534  0.65028989  0.17871214     0.43940
C2111       C  0.61981983  0.58695889  0.08499122    -0.05120
C2112       C  0.62251998  0.62672761  0.07518765    -0.32550
C2113       C  0.64494757  0.65120177  0.09492776     0.36700
C2114       C  0.66300007  0.63672041  0.12853948    -0.05480
C2115       C  0.66388433  0.59508751  0.13314033    -0.32450
C2116       C  0.64191764  0.57053468  0.11265903     0.36610
H2117       H  0.60777144  0.63872311  0.05108081     0.16980
O2118       O  0.65197382  0.68685264  0.07764835    -0.59950
H2119       H  0.68239993  0.58103107  0.15181009     0.16990
O2120       O  0.64216752  0.53066940  0.12002739    -0.60040
H2121       H  0.62699738  0.52688432  0.14206283     0.43990
H2122       H  0.63044140  0.70098447  0.07393670     0.43940
C2123       C  0.89267923  0.90630243  0.40988942    -0.05120
C2124       C  0.86781366  0.88380179  0.42708595    -0.32550
C2125       C  0.84582168  0.86125676  0.40419838     0.36700
C2126       C  0.84827489  0.86143695  0.36301013    -0.05480
C2127       C  0.87299289  0.88586425  0.34666980    -0.32450
C2128       C  0.89470637  0.90778423  0.36947844     0.36610
H2129       H  0.86647412  0.88209567  0.45840889     0.16980
O2130       O  0.82386953  0.83677745  0.42253236    -0.59950
H2131       H  0.87738068  0.88749547  0.31596974     0.16990
O2132       O  0.91820251  0.93067139  0.35180510    -0.60040
H2133       H  0.93558829  0.91193617  0.34340809     0.43990
H2134       H  0.80975841  0.85404584  0.43849623     0.43940
C2135       C  0.84525502  0.63490777  0.36855071    -0.05120
C2136       C  0.84531185  0.59339303  0.36405535    -0.32550
C2137       C  0.86714341  0.56850680  0.38556157     0.36700
C2138       C  0.88859741  0.58458586  0.41368569    -0.05480
C2139       C  0.88480104  0.62392247  0.42338906    -0.32450
C2140       C  0.86243939  0.64856635  0.40297825     0.36610
H2141       H  0.82878527  0.57988753  0.34300386     0.16980
O2142       O  0.86849344  0.52902736  0.37739622    -0.59950
H2143       H  0.89897354  0.63564957  0.44773472     0.16990
O2144       O  0.85542855  0.68407925  0.41991256    -0.60040
H2145       H  0.87687092  0.69825190  0.42267266     0.43990
H2146       H  0.85265373  0.51640638  0.39531565     0.43940
C2147       C  0.61679312  0.90234877  0.41258609    -0.05120
C2148       C  0.62550366  0.86451663  0.42557898    -0.32550
C2149       C  0.64732170  0.84083329  0.40456663     0.36700
C2150       C  0.65974708  0.85420173  0.36805528    -0.05480
C2151       C  0.65157867  0.89357946  0.35698445    -0.32450
C2152       C  0.63101259  0.91748387  0.37903184     0.36610
H2153       H  0.61532456  0.85316633  0.45235082     0.16980
O2154       O  0.65717853  0.80563149  0.42128726    -0.59950
H2155       H  0.65987146  0.90651157  0.33054499     0.16990
O2156       O  0.62438245  0.95552597  0.36699125    -0.60040
H2157       H  0.60483106  0.95366972  0.34912473     0.43990
H2158       H  0.63679029  0.78940729  0.42312080     0.43940
C2159       C  0.89755840  0.90114515  0.09192402    -0.05120
C2160       C  0.90423279  0.89778763  0.13161240    -0.32550
C2161       C  0.88417725  0.87559808  0.15583041     0.36700
C2162       C  0.85514634  0.85624983  0.14074485    -0.05480
C2163       C  0.84912962  0.85931551  0.10019005    -0.32450
C2164       C  0.86943908  0.88229479  0.07611690     0.36610
H2165       H  0.92605747  0.91182102  0.14413507     0.16980
O2166       O  0.89502557  0.87187368  0.19367481    -0.59950
H2167       H  0.82853107  0.84351991  0.08704310     0.16990
O2168       O  0.86270577  0.88415740  0.03697957    -0.60040
H2169       H  0.84655978  0.90618616  0.03344984     0.43990
H2170       H  0.91229749  0.85086786  0.19370813     0.43940
O2171       O  0.94872530  0.91811861  0.92419985    -0.74950
O2172       O  0.90956746  0.94941123  0.96004288    -0.53860
C2173       C  0.91852133  0.92561863  0.93338399     0.78780
O2174       O  0.56501208  0.92188438  0.57905635    -0.59550
O2175       O  0.60338797  0.95272468  0.54152997    -0.52580
C2176       C  0.59505969  0.92988914  0.56973465     0.70790
O2177       O  0.95284281  0.91504433  0.57641835    -0.74110
O2178       O  0.91149419  0.94775435  0.54277730    -0.54670
C2179       C  0.92200444  0.92239945  0.56827404     0.76800
O2180       O  0.56071192  0.91527597  0.92485971    -0.59250
O2181       O  0.60051288  0.95173495  0.95608022    -0.52370
C2182       C  0.59108621  0.92465673  0.93254677     0.73390
Zr2183     Zr  0.00508285  0.93660525  0.94270362     2.54710
O2184       O  0.00388954  0.86481488  0.94211638    -0.79820
O2185       O  0.50573639  0.94143266  0.87215395    -0.93230
Zr2186     Zr  0.00823341  0.93530343  0.55712068     2.64680
O2187       O  0.01114733  0.86363371  0.55338894    -0.98190
O2188       O  0.50832695  0.93235710  0.62776875    -0.80250
O2189       O  0.97405655  0.93462099  0.50047428    -0.83610
O2190       O  0.53920758  0.93534971  0.49948917    -2.18320
O2191       O  0.55727042  0.56989125  0.91878344    -0.67000
O2192       O  0.59888697  0.53909740  0.95374878    -0.51560
C2193       C  0.58813012  0.56255341  0.92654233     0.71770
O2194       O  0.95279760  0.56998200  0.57861623    -0.59900
O2195       O  0.91189599  0.53732940  0.54540174    -0.51880
C2196       C  0.92216316  0.56200342  0.57121244     0.73580
O2197       O  0.56359025  0.57264625  0.57432411    -0.71300
O2198       O  0.60229619  0.53751927  0.54130696    -0.49980
C2199       C  0.59368171  0.56373616  0.56588808     0.74960
O2200       O  0.94540301  0.57227013  0.92528044    -0.66630
O2201       O  0.90767571  0.53479117  0.95770470    -0.53830
C2202       C  0.91550608  0.56187861  0.93316547     0.73340
Zr2203     Zr  0.50255780  0.55316787  0.94254434     2.77540
O2204       O  0.00304579  0.62495024  0.94551428    -0.97380
O2205       O  0.99788964  0.55414264  0.87198051    -0.78200
Zr2206     Zr  0.50744924  0.55166654  0.55706834     2.70070
O2207       O  0.50605049  0.62348730  0.55681744    -0.79450
O2208       O  0.01037796  0.54691867  0.62764100    -0.98530
Zr2209     Zr  0.94112961  0.49342951  0.50144982     2.21500
Zr2210     Zr  0.57033669  0.99517210  0.99837926     2.11130
O2211       O  0.53751540  0.55405640  0.99879186    -2.47220
O2212       O  0.97230031  0.55315638  0.00081177    -0.79240
O2213       O  0.53632252  0.99553257  0.94086548    -0.71440
O2214       O  0.97531187  0.49322685  0.55892691    -2.32390
O2215       O  0.97139338  0.49427726  0.94250214    -2.28600
O2216       O  0.54036047  0.99377175  0.55729302    -0.73190
H2217       H  0.55372654  0.91255845  0.49966634     0.78800
H2218       H  0.96198116  0.49276991  0.58191944     0.79890
H2219       H  0.55141229  0.57720507  0.99826404     0.82120
H2220       H  0.95655708  0.49437580  0.92010120     0.79720
H2221       H  0.99809821  0.95761495  0.63556284     0.42760
H2222       H  0.53019197  0.53025260  0.63345407     0.41730
H2223       H  0.99483370  0.63077733  0.53188536     0.41410
H2224       H  0.52480540  0.63155682  0.95763082     0.39340
H2225       H  0.51175703  0.53161903  0.86379580     0.42470
H2226       H  0.98645119  0.95845261  0.86497624     0.37260
H2227       H  0.99750112  0.85717591  0.96875266     0.43370
H2228       H  0.53320042  0.85790405  0.54248589     0.39790
H2229       H  0.50487644  0.63372436  0.91812976     0.44710
H2230       H  0.49935850  0.91480724  0.86321262     0.43430
H2231       H  0.01308065  0.85460350  0.58078531     0.43570
H2232       H  0.51686102  0.57365708  0.63615696     0.43920
C2233       C  0.67712858  0.65618757  0.82909033    -0.02140
C2234       C  0.68010345  0.82743613  0.84021589    -0.02140
C2235       C  0.68435834  0.83422486  0.66784733    -0.02140
C2236       C  0.68351102  0.66325995  0.65744756    -0.02140
C2237       C  0.82688346  0.66299011  0.83763162    -0.02140
C2238       C  0.83188340  0.65924377  0.66450706    -0.02140
C2239       C  0.83330206  0.82801314  0.66526166    -0.02140
C2240       C  0.82798943  0.83262893  0.83704179    -0.02140
C2241       C  0.84228560  0.83239645  0.70998223    -0.05120
C2242       C  0.83073223  0.86680497  0.72889865    -0.32550
C2243       C  0.82880220  0.86889107  0.76956348     0.36700
C2244       C  0.83938713  0.83655377  0.79347173    -0.05480
C2245       C  0.85694236  0.80666305  0.77456654    -0.32450
C2246       C  0.85859306  0.80416699  0.73449289     0.36610
H2247       H  0.82046518  0.89114344  0.71177987     0.16980
O2248       O  0.81369264  0.90114125  0.78545110    -0.59950
H2249       H  0.86856974  0.78249072  0.78912384     0.16990
O2250       O  0.87686377  0.77346748  0.72115081    -0.60040
H2251       H  0.90042214  0.78028558  0.72678403     0.43990
H2252       H  0.82977614  0.92303196  0.78281735     0.43940
C2253       C  0.83723539  0.70139301  0.64540801    -0.05120
C2254       C  0.86759980  0.72199406  0.65068633    -0.32550
C2255       C  0.86836208  0.76381959  0.64807543     0.36700
C2256       C  0.83791195  0.78498453  0.64824054    -0.05480
C2257       C  0.81156940  0.76476559  0.62920812    -0.32450
C2258       C  0.81246752  0.72349394  0.62528602     0.36610
H2259       H  0.88994305  0.70639169  0.65972416     0.16980
O2260       O  0.89815649  0.78307394  0.65124145    -0.59950
H2261       H  0.79053412  0.78068276  0.61663711     0.16990
O2262       O  0.79313817  0.70664456  0.59697754    -0.60040
H2263       H  0.80519051  0.71094301  0.57247877     0.43990
H2264       H  0.90673191  0.78409128  0.62448729     0.43940
C2265       C  0.84215234  0.66168781  0.79454897    -0.05120
C2266       C  0.84054523  0.69648371  0.77120901    -0.32550
C2267       C  0.83626623  0.69606575  0.73088552     0.36700
C2268       C  0.84217989  0.66168978  0.70914320    -0.05480
C2269       C  0.84985635  0.62739218  0.73179281    -0.32450
C2270       C  0.85064345  0.62723263  0.77299988     0.36610
H2271       H  0.83600507  0.72484298  0.78364371     0.16980
O2272       O  0.82044345  0.72806427  0.71443277    -0.59950
H2273       H  0.85283568  0.59931632  0.71756471     0.16990
O2274       O  0.86161107  0.59322903  0.79052484    -0.60040
H2275       H  0.88589720  0.59681738  0.79443200     0.43990
H2276       H  0.79642438  0.72170490  0.71503242     0.43940
C2277       C  0.83101902  0.70637833  0.85275040    -0.05120
C2278       C  0.86185239  0.72663783  0.85051307    -0.32550
C2279       C  0.86318447  0.76825790  0.85484277     0.36700
C2280       C  0.83286626  0.78951232  0.85450952    -0.05480
C2281       C  0.80610724  0.76856029  0.87081604    -0.32450
C2282       C  0.80552745  0.72742008  0.87114084     0.36610
H2283       H  0.88416274  0.71047477  0.84341342     0.16980
O2284       O  0.89295033  0.78821610  0.85422562    -0.59950
H2285       H  0.78491142  0.78385294  0.88200921     0.16990
O2286       O  0.77989598  0.70847542  0.88884363    -0.60040
H2287       H  0.78789439  0.70317970  0.91581867     0.43990
H2288       H  0.90846389  0.77312037  0.83793872     0.43940
C2289       C  0.72063301  0.64796344  0.65925918    -0.05120
C2290       C  0.73847119  0.64666904  0.69467407    -0.32550
C2291       C  0.77287698  0.64302568  0.69715732     0.36700
C2292       C  0.79324679  0.64523031  0.66333850    -0.05480
C2293       C  0.77473371  0.63704403  0.62853592    -0.32450
C2294       C  0.73946670  0.63898099  0.62606494     0.36610
H2295       H  0.72656025  0.64989749  0.72213540     0.16980
O2296       O  0.78504654  0.63697215  0.73398264    -0.59950
H2297       H  0.78628875  0.63152818  0.60161232     0.16990
O2298       O  0.72426018  0.63602046  0.59021823    -0.60040
H2299       H  0.72548459  0.66277901  0.57838114     0.43990
H2300       H  0.78188140  0.60842446  0.73946864     0.43940
C2301       C  0.68145710  0.70800505  0.64375190    -0.05120
C2302       C  0.65056513  0.72911728  0.64439422    -0.32550
C2303       C  0.64964838  0.77104044  0.64452882     0.36700
C2304       C  0.67966988  0.79207960  0.64897974    -0.05480
C2305       C  0.70701691  0.77226499  0.63337611    -0.32450
C2306       C  0.70953325  0.73157995  0.63549478     0.36610
H2307       H  0.62749693  0.71314524  0.64729189     0.16980
O2308       O  0.61976267  0.79052844  0.64096864    -0.59950
H2309       H  0.72919157  0.78770045  0.62492055     0.16990
O2310       O  0.74090955  0.71703134  0.63513075    -0.60040
H2311       H  0.75061570  0.72288404  0.66116381     0.43990
H2312       H  0.61722905  0.79710334  0.61294080     0.43940
C2313       C  0.79466863  0.83698361  0.66461743    -0.05120
C2314       C  0.77655174  0.81230860  0.68926627    -0.32550
C2315       C  0.74250085  0.81541801  0.69402508     0.36700
C2316       C  0.72321012  0.84143575  0.67013298    -0.05480
C2317       C  0.74094585  0.86936630  0.64774525    -0.32450
C2318       C  0.77631643  0.86782279  0.64538418     0.36610
H2319       H  0.78964873  0.78983581  0.70577748     0.16980
O2320       O  0.72724997  0.79094332  0.72034018    -0.59950
H2321       H  0.72769253  0.89229786  0.63168631     0.16990
O2322       O  0.79215484  0.89745733  0.62585018    -0.60040
H2323       H  0.78438073  0.89556378  0.59841839     0.43990
H2324       H  0.74282505  0.76957281  0.72864961     0.43940
C2325       C  0.67042391  0.83759369  0.79585894    -0.05120
C2326       C  0.64993965  0.81313777  0.77292466    -0.32550
C2327       C  0.65107353  0.81250685  0.73213970     0.36700
C2328       C  0.67312099  0.83751701  0.71170867    -0.05480
C2329       C  0.68716346  0.86824546  0.73388261    -0.32450
C2330       C  0.68676979  0.86835789  0.77455863     0.36610
H2331       H  0.63200964  0.79403159  0.78533732     0.16980
O2332       O  0.62717178  0.79107718  0.71339083    -0.59950
H2333       H  0.70138625  0.89105234  0.71961079     0.16990
O2334       O  0.70639911  0.89587036  0.79291832    -0.60040
H2335       H  0.69823517  0.92214714  0.78380444     0.43990
H2336       H  0.62857738  0.76378755  0.72400617     0.43940
C2337       C  0.78945586  0.84045039  0.83529699    -0.05120
C2338       C  0.77191575  0.86355386  0.86226866    -0.32550
C2339       C  0.73686756  0.86066117  0.86574261     0.36700
C2340       C  0.71848673  0.83443031  0.84170216    -0.05480
C2341       C  0.73633460  0.81321644  0.81412358    -0.32450
C2342       C  0.76990325  0.81778448  0.80911542     0.36610
H2343       H  0.78506164  0.88330139  0.88143487     0.16980
O2344       O  0.72156192  0.88212577  0.89375612    -0.59950
H2345       H  0.72343599  0.79299627  0.79499336     0.16990
O2346       O  0.78300046  0.79978415  0.77750813    -0.60040
H2347       H  0.79837083  0.77923052  0.78753781     0.43990
H2348       H  0.72049023  0.90953686  0.88338134     0.43940
C2349       C  0.66558360  0.65623804  0.78487889    -0.05120
C2350       C  0.66180404  0.69198896  0.76416945    -0.32550
C2351       C  0.66903208  0.69460383  0.72507165     0.36700
C2352       C  0.66933498  0.66089601  0.70053168    -0.05480
C2353       C  0.66574461  0.62432612  0.72084890    -0.32450
C2354       C  0.66694524  0.62177378  0.76194937     0.36610
H2355       H  0.66298077  0.71991430  0.77855844     0.16980
O2356       O  0.68450579  0.72876646  0.71509527    -0.59950
H2357       H  0.66699206  0.59668227  0.70643661     0.16990
O2358       O  0.67295239  0.58566225  0.77928529    -0.60040
H2359       H  0.65318415  0.56935582  0.77309278     0.43990
H2360       H  0.70840742  0.72176770  0.71700677     0.43940
C2361       C  0.71571836  0.64690844  0.82749972    -0.05120
C2362       C  0.73369060  0.67296986  0.80437436    -0.32550
C2363       C  0.76767268  0.67807281  0.80807865     0.36700
C2364       C  0.78810278  0.65365137  0.83251264    -0.05480
C2365       C  0.77055135  0.62356250  0.85291883    -0.32450
C2366       C  0.73524457  0.61929586  0.84964504     0.36610
H2367       H  0.72095761  0.69508551  0.78688922     0.16980
O2368       O  0.77912631  0.71182052  0.79167195    -0.59950
H2369       H  0.78331124  0.60401264  0.87315063     0.16990
O2370       O  0.72080263  0.58824470  0.86849972    -0.60040
H2371       H  0.71733327  0.56792863  0.84835545     0.43990
H2372       H  0.76727308  0.73309251  0.80534440     0.43940
C2373       C  0.67269016  0.69840039  0.84720135    -0.05120
C2374       C  0.69928836  0.71736828  0.86620233    -0.32550
C2375       C  0.70016211  0.75833119  0.86926417     0.36700
C2376       C  0.67484304  0.78208229  0.85114121    -0.05480
C2377       C  0.64397844  0.76240378  0.84694869    -0.32450
C2378       C  0.64270987  0.72068968  0.84458207     0.36610
H2379       H  0.72008377  0.70059876  0.87784857     0.16980
O2380       O  0.72521894  0.77447984  0.89130017    -0.59950
H2381       H  0.62116093  0.77923292  0.84343929     0.16990
O2382       O  0.61337170  0.70304960  0.83408687    -0.60040
H2383       H  0.60292973  0.69571627  0.85894351     0.43990
H2384       H  0.71796797  0.77209103  0.91854802     0.43940
C2385       C  0.65594378  0.62807491  0.85448941    -0.05120
C2386       C  0.62647525  0.61107598  0.83920577    -0.32550
C2387       C  0.60550093  0.58838842  0.86197537     0.36700
C2388       C  0.61245142  0.58285812  0.90176905    -0.05480
C2389       C  0.64113387  0.59985352  0.91793276    -0.32450
C2390       C  0.66214517  0.62321705  0.89510589     0.36610
H2391       H  0.61811411  0.61641513  0.80966083     0.16980
O2392       O  0.57755457  0.57251859  0.84496555    -0.59950
H2393       H  0.64639247  0.59676707  0.94879933     0.16990
O2394       O  0.68831541  0.64186032  0.91310113    -0.60040
H2395       H  0.67825572  0.66357423  0.92803336     0.43990
H2396       H  0.58415829  0.54548263  0.83738893     0.43810
C2397       C  0.62133062  0.91140322  0.59421445    -0.05120
C2398       C  0.64761438  0.89063781  0.57780542    -0.32550
C2399       C  0.66904000  0.86705870  0.60118112     0.36700
C2400       C  0.66487383  0.86469174  0.64206084    -0.05480
C2401       C  0.63950349  0.88834633  0.65794222    -0.32450
C2402       C  0.61815238  0.91115473  0.63461271     0.36610
H2403       H  0.65037232  0.89078024  0.54658089     0.16980
O2404       O  0.69330860  0.84553154  0.58355669    -0.59950
H2405       H  0.63452078  0.88861324  0.68857747     0.16990
O2406       O  0.59316014  0.93203438  0.65168283    -0.60040
H2407       H  0.60261117  0.95849665  0.65670326     0.43990
H2408       H  0.68145516  0.82416612  0.56962052     0.43940
C2409       C  0.89782240  0.58331058  0.59492238    -0.05120
C2410       C  0.90660937  0.59210934  0.63333577    -0.32550
C2411       C  0.88757652  0.61790980  0.65532103     0.36700
C2412       C  0.85592722  0.63191146  0.64112858    -0.05480
C2413       C  0.85003000  0.62648138  0.60079214    -0.32450
C2414       C  0.86942519  0.60124871  0.57841739     0.36610
H2415       H  0.93001347  0.58136077  0.64565375     0.16980
O2416       O  0.90271820  0.63284858  0.68799821    -0.59950
H2417       H  0.83264368  0.64497244  0.58495052     0.16990
O2418       O  0.86244247  0.59793660  0.53945088    -0.60040
H2419       H  0.84585162  0.57648129  0.53746236     0.43990
H2420       H  0.92068576  0.65028920  0.67871329     0.43940
C2421       C  0.61982046  0.58695833  0.58499160    -0.05120
C2422       C  0.62252103  0.62672692  0.57518771    -0.32550
C2423       C  0.64494867  0.65120099  0.59492786     0.36700
C2424       C  0.66300075  0.63671972  0.62853992    -0.05480
C2425       C  0.66388469  0.59508686  0.63314108    -0.32450
C2426       C  0.64191794  0.57053410  0.61265978     0.36610
H2427       H  0.60777279  0.63872237  0.55108059     0.16980
O2428       O  0.65197543  0.68685158  0.57764819    -0.59950
H2429       H  0.68240011  0.58103035  0.65181103     0.16990
O2430       O  0.64216745  0.53066888  0.62002844    -0.60040
H2431       H  0.62699741  0.52688422  0.64206403     0.43990
H2432       H  0.63044317  0.70098365  0.57393606     0.43940
C2433       C  0.89267887  0.90630255  0.90988921    -0.05120
C2434       C  0.86781312  0.88380213  0.92708566    -0.32550
C2435       C  0.84582110  0.86125724  0.90419802     0.36700
C2436       C  0.84827453  0.86143724  0.86300981    -0.05480
C2437       C  0.87299262  0.88586443  0.84666954    -0.32450
C2438       C  0.89470608  0.90778437  0.86947823     0.36610
H2439       H  0.86647344  0.88209610  0.95840860     0.16980
O2440       O  0.82386866  0.83677824  0.92253192    -0.59950
H2441       H  0.87738050  0.88749561  0.81596950     0.16990
O2442       O  0.91820227  0.93067152  0.85180496    -0.60040
H2443       H  0.93558797  0.91193627  0.84340779     0.43990
H2444       H  0.80975738  0.85404691  0.93849531     0.43940
C2445       C  0.84525421  0.63490795  0.86855140    -0.05120
C2446       C  0.84531105  0.59339324  0.86405593    -0.32550
C2447       C  0.86714272  0.56850704  0.88556197     0.36700
C2448       C  0.88859669  0.58458609  0.91368613    -0.05480
C2449       C  0.88480009  0.62392261  0.92338982    -0.32450
C2450       C  0.86243837  0.64856646  0.90297907     0.36610
H2451       H  0.82878454  0.57988782  0.84300430     0.16980
O2452       O  0.86849296  0.52902767  0.87739635    -0.59950
H2453       H  0.89897248  0.63564963  0.94773558     0.16990
O2454       O  0.85542723  0.68407922  0.91991348    -0.60040
H2455       H  0.87686951  0.69825203  0.92267383     0.43990
H2456       H  0.85265332  0.51640643  0.89531569     0.43940
C2457       C  0.61679288  0.90234981  0.91258507    -0.05120
C2458       C  0.62550634  0.86451918  0.92557981    -0.32550
C2459       C  0.64732420  0.84083597  0.90456703     0.36700
C2460       C  0.65974671  0.85420295  0.86805380    -0.05480
C2461       C  0.65157516  0.89357921  0.85698074    -0.32450
C2462       C  0.63100916  0.91748356  0.87902831     0.36610
H2463       H  0.61532944  0.85316982  0.95235322     0.16980
O2464       O  0.65718318  0.80563541  0.92128851    -0.59950
H2465       H  0.65986516  0.90651005  0.83053935     0.16990
O2466       O  0.62437606  0.95552431  0.86698561    -0.60040
H2467       H  0.60482374  0.95366519  0.84912084     0.43990
H2468       H  0.63679583  0.78940977  0.92312291     0.43940
C2469       C  0.89755899  0.90114472  0.59192387    -0.05120
C2470       C  0.90423319  0.89778752  0.63161230    -0.32550
C2471       C  0.88417773  0.87559784  0.65583028     0.36700
C2472       C  0.85514705  0.85624919  0.64074462    -0.05480
C2473       C  0.84913058  0.85931448  0.60018975    -0.32450
C2474       C  0.86943999  0.88229383  0.57611662     0.36610
H2475       H  0.92605767  0.91182127  0.64413505     0.16980
O2476       O  0.89502593  0.87187372  0.69367475    -0.59950
H2477       H  0.82853224  0.84351855  0.58704274     0.16990
O2478       O  0.86270699  0.88415600  0.53697921    -0.60040
H2479       H  0.84656080  0.90618450  0.53344912     0.43990
H2480       H  0.91229790  0.85086796  0.69370826     0.43940
loop_ 
_geom_bond_atom_site_label_1 
_geom_bond_atom_site_label_2 
_geom_bond_distance 
_geom_bond_site_symmetry_2 
_ccdc_geom_bond_type 
O1          Zr13   2.430       .  S
O1            C3   1.287       .  A
O2         Zr969   2.422       .  S
O2            C3   1.285       .  A
C3          C263   1.466       .  S
O4        Zr1256   2.430       .  S
O4            C6   1.287       .  A
O5         Zr350   2.428   1_554  S
O5            C6   1.286       .  A
C6          C227   1.471       .  S
O7          Zr16   2.439       .  S
O7            C9   1.289       .  A
O8         Zr659   2.426       .  S
O8            C9   1.285       .  A
C9          C299   1.476       .  S
O10       Zr1253   2.442       .  S
O10          C12   1.288       .  A
O11         Zr40   2.423       .  S
O11          C12   1.285       .  A
C12         C287   1.465       .  S
Zr13       O1250   2.442       .  S
Zr13         O14   2.433       .  S
Zr13       O1255   2.435       .  S
Zr13        O329   2.372       .  S
Zr13       O1570   2.366       .  S
Zr13       O1283   2.366       .  S
Zr13        O665   2.372       .  S
O14          H57   0.990       .  S
O15       Zr1253   2.435       .  S
O15          H60   0.990   1_455  S
O15        H1296   0.990   1_455  S
Zr16       O1244   2.430       .  S
Zr16         O17   2.435       .  S
Zr16       O1258   2.435       .  S
Zr16         O19   2.364       .  S
Zr16       O1260   2.366   1_554  S
Zr16        O664   2.364       .  S
Zr16       O1286   2.371       .  S
O17          H61   0.990       .  S
O17        H1298   0.990       .  S
O18       Zr1256   2.435       .  S
O18        H1291   0.990   1_455  S
O19        Zr323   2.372   1_554  S
O19        Zr659   2.388       .  S
O20       Zr1563   2.366       .  S
O20       Zr1256   2.366   1_556  S
O20        Zr350   2.389       .  S
O20          H47   0.966       .  S
O21         Zr33   2.432       .  S
O21          C23   1.287       .  A
O22        Zr660   2.437   1_545  S
O22          C23   1.288       .  A
C23         C218   1.479       .  S
O24       Zr1276   2.416       .  S
O24          C26   1.284       .  A
O25         Zr39   2.449   1_545  S
O25          C26   1.291       .  A
C26         C239   1.479       .  S
O27         Zr36   2.436       .  S
O27          C29   1.286       .  A
O28        Zr970   2.427   1_544  S
O28          C29   1.286       .  A
C29         C251   1.466       .  S
O30       Zr1273   2.446       .  S
O30          C32   1.289       .  A
O31        Zr349   2.428   1_545  S
O31          C32   1.285       .  A
C32         C278   1.471       .  S
Zr33       O1270   2.446   1_455  S
Zr33       O1274   2.436       .  S
Zr33       O1275   2.434   1_455  S
Zr33         O41   2.371       .  S
Zr33       O1282   2.369   1_455  S
Zr33       O1285   2.362   1_445  S
Zr33        O663   2.375   1_545  S
O34       Zr1273   2.436       .  S
O34        H1294   0.990       .  S
O34        H1299   0.990       .  S
O35       Zr1273   2.434       .  S
O35        H1295   0.990       .  S
Zr36       O1264   2.416   1_455  S
Zr36         O37   2.434       .  S
Zr36       O1278   2.435       .  S
Zr36       O1592   2.375   1_455  S
Zr36        O351   2.366   1_554  S
Zr36        O666   2.361   1_545  S
Zr36       O1284   2.372   1_445  S
O37        H1293   0.990   1_455  S
O38       Zr1276   2.435       .  S
O38        H1292   0.990       .  S
O38        H1302   0.990       .  S
Zr39        O932   2.422   1_554  S
Zr39        O628   2.426       .  S
Zr39        O341   2.428   1_564  S
Zr39         O44   2.387       .  S
Zr39        O639   2.388       .  S
Zr39        O352   2.387   1_565  S
Zr39        O355   2.390   1_554  S
Zr40        O315   2.428       .  S
Zr40        O642   2.437       .  S
Zr40        O958   2.427       .  S
Zr40         O43   2.385       .  S
Zr40        O330   2.389       .  S
Zr40        O661   2.387       .  S
Zr40        O356   2.383       .  S
O41        Zr346   2.366       .  S
O41        Zr660   2.387   1_545  S
O41          H49   0.966       .  S
O42       Zr1273   2.369       .  S
O42       Zr1586   2.375       .  S
O42        Zr349   2.387   1_545  S
O43       Zr1253   2.366       .  S
O43        Zr653   2.375       .  S
O44        Zr636   2.364       .  S
O44       Zr1276   2.372   1_565  S
O44          H48   0.966       .  S
O45        Zr633   2.372       .  S
O45       Zr1273   2.362   1_565  S
O45        Zr349   2.390       .  S
O45          H50   0.966       .  S
O46       Zr1256   2.371       .  S
O46        Zr656   2.361       .  S
O46        Zr350   2.383   1_554  S
H51        O1258   0.990       .  S
H52        O1278   0.990       .  S
H53        O1277   0.990       .  S
H54        O1274   0.990       .  S
H55        O1275   0.990   1_455  S
H56        O1255   0.990       .  S
H58        O1257   0.990       .  S
H59        O1274   0.990       .  S
H62        O1278   0.990       .  S
C63         C179   1.583       .  S
C63         C191   1.585       .  S
C63         C203   1.578       .  S
C63         C215   1.556       .  S
C64         C155   1.602       .  S
C64         C170   1.564       .  S
C64         C206   1.594       .  S
C64         C290   1.568       .  S
C65         C134   1.586       .  S
C65         C146   1.584       .  S
C65         C158   1.591       .  S
C65         C230   1.553       .  S
C66         C119   1.578       .  S
C66         C131   1.584       .  S
C66         C182   1.602       .  S
C66         C254   1.574       .  S
C67          C95   1.619       .  S
C67         C107   1.574       .  S
C67         C194   1.601       .  S
C67         C275   1.588       .  S
C68          C83   1.583       .  S
C68          C98   1.587       .  S
C68         C122   1.628       .  S
C68         C242   1.576       .  S
C69          C71   1.584       .  S
C69          C86   1.589       .  S
C69         C143   1.582       .  S
C69         C302   1.556       .  S
C70          C74   1.583       .  S
C70         C110   1.583       .  S
C70         C167   1.572       .  S
C70         C266   1.555       .  S
C71          C72   1.423       .  A
C71          C76   1.418       .  A
C72          C73   1.407       .  A
C72          H77   1.083       .  S
C73          C74   1.421       .  A
C73          O78   1.373       .  S
C74          C75   1.406       .  A
C75          C76   1.387       .  A
C75          H79   1.057       .  S
C76          O80   1.360       .  S
O78          H82   0.992       .  S
O80          H81   0.993       .  S
C83          C84   1.420       .  A
C83          C88   1.409       .  A
C84          C85   1.419       .  A
C84          H89   1.079       .  S
C85          C86   1.417       .  A
C85          O90   1.371       .  S
C86          C87   1.418       .  A
C87          C88   1.407       .  A
C87          H91   1.081       .  S
C88          O92   1.367       .  S
O90          H94   0.991       .  S
O92          H93   0.992       .  S
C95          C96   1.420       .  A
C95         C100   1.434       .  A
C96          C97   1.396       .  A
C96         H101   1.073       .  S
C97          C98   1.414       .  A
C97         O102   1.366       .  S
C98          C99   1.421       .  A
C99         C100   1.419       .  A
C99         H103   1.082       .  S
C100        O104   1.362       .  S
O102        H106   0.992       .  S
O104        H105   0.992       .  S
C107        C108   1.424       .  A
C107        C112   1.411       .  A
C108        C109   1.421       .  A
C108        H113   1.083       .  S
C109        C110   1.413       .  A
C109        O114   1.379       .  S
C110        C111   1.415       .  A
C111        C112   1.394       .  A
C111        H115   1.076       .  S
C112        O116   1.368       .  S
O114        H118   0.992       .  S
O116        H117   0.991       .  S
C119        C120   1.403       .  A
C119        C124   1.420       .  A
C120        C121   1.390       .  A
C120        H125   1.076       .  S
C121        C122   1.440       .  A
C121        O126   1.363       .  S
C122        C123   1.429       .  A
C123        C124   1.421       .  A
C123        H127   1.064       .  S
C124        O128   1.372       .  S
O126        H130   0.993       .  S
O128        H129   0.992       .  S
C131        C132   1.432       .  A
C131        C136   1.419       .  A
C132        C133   1.421       .  A
C132        H137   1.083       .  S
C133        C134   1.412       .  A
C133        O138   1.371       .  S
C134        C135   1.406       .  A
C135        C136   1.383       .  A
C135        H139   1.080       .  S
C136        O140   1.353       .  S
O138        H142   0.991       .  S
O140        H141   0.993       .  S
C143        C144   1.403       .  A
C143        C148   1.425       .  A
C144        C145   1.387       .  A
C144        H149   1.074       .  S
C145        C146   1.416       .  A
C145        O150   1.377       .  S
C146        C147   1.419       .  A
C147        C148   1.428       .  A
C147        H151   1.081       .  S
C148        O152   1.370       .  S
O150        H154   0.991       .  S
O152        H153   0.992       .  S
C155        C156   1.409       .  A
C155        C160   1.438       .  A
C156        C157   1.407       .  A
C156        H161   1.065       .  S
C157        C158   1.422       .  A
C157        O162   1.365       .  S
C158        C159   1.412       .  A
C159        C160   1.402       .  A
C159        H163   1.084       .  S
C160        O164   1.376       .  S
O162        H166   0.991       .  S
O164        H165   0.993       .  S
C167        C168   1.419       .  A
C167        C172   1.420       .  A
C168        C169   1.422       .  A
C168        H173   1.078       .  S
C169        C170   1.422       .  A
C169        O174   1.370       .  S
C170        C171   1.405       .  A
C171        C172   1.375       .  A
C171        H175   1.083       .  S
C172        O176   1.368       .  S
O174        H178   0.992       .  S
O176        H177   0.984       .  S
C179        C180   1.405       .  A
C179        C184   1.419       .  A
C180        C181   1.386       .  A
C180        H185   1.074       .  S
C181        C182   1.429       .  A
C181        O186   1.361       .  S
C182        C183   1.425       .  A
C183        C184   1.417       .  A
C183        H187   1.067       .  S
C184        O188   1.373       .  S
O186        H190   0.990       .  S
O188        H189   0.992       .  S
C191        C192   1.397       .  A
C191        C196   1.423       .  A
C192        C193   1.383       .  A
C192        H197   1.077       .  S
C193        C194   1.420       .  A
C193        O198   1.357       .  S
C194        C195   1.430       .  A
C195        C196   1.431       .  A
C195        H199   1.077       .  S
C196        O200   1.369       .  S
O198        H202   0.991       .  S
O200        H201   0.991       .  S
C203        C204   1.405       .  A
C203        C208   1.421       .  A
C204        C205   1.394       .  A
C204        H209   1.077       .  S
C205        C206   1.424       .  A
C205        O210   1.370       .  S
C206        C207   1.418       .  A
C207        C208   1.418       .  A
C207        H211   1.082       .  S
C208        O212   1.370       .  S
O210        H214   0.991       .  S
O212        H213   0.991       .  S
C215        C216   1.415       .  A
C215        C220   1.424       .  A
C216        C217   1.393       .  A
C216        H221   1.078       .  S
C217        C218   1.404       .  A
C217        O222   1.372       .  S
C218        C219   1.401       .  A
C219        C220   1.407       .  A
C219        H223   1.084       .  S
C220        O224   1.372       .  S
O222        H226   0.992       .  S
O224        H225   0.992       .  S
C227        C228   1.400       .  A
C227        C232   1.400       .  A
C228        C229   1.407       .  A
C228        H233   1.084       .  S
C229        C230   1.423       .  A
C229        O234   1.372       .  S
C230        C231   1.417       .  A
C231        C232   1.390       .  A
C231        H235   1.079       .  S
C232        O236   1.373       .  S
O234        H238   0.992       .  S
O236        H237   0.991       .  S
C239        C240   1.399       .  A
C239        C244   1.399       .  A
C240        C241   1.399       .  A
C240        H245   1.084       .  S
C241        C242   1.431       .  A
C241        O246   1.372       .  S
C242        C243   1.419       .  A
C243        C244   1.403       .  A
C243        H247   1.073       .  S
C244        O248   1.372       .  S
O246        H250   0.992       .  S
O248        H249   0.992       .  S
C251        C252   1.391       .  A
C251        C256   1.399       .  A
C252        C253   1.400       .  A
C252        H257   1.085       .  S
C253        C254   1.434       .  A
C253        O258   1.374       .  S
C254        C255   1.418       .  A
C255        C256   1.402       .  A
C255        H259   1.079       .  S
C256        O260   1.371       .  S
O258        H262   0.993       .  S
O260        H261   0.992       .  S
C263        C264   1.398       .  A
C263        C268   1.397       .  A
C264        C265   1.407       .  A
C264        H269   1.082       .  S
C265        C266   1.424       .  A
C265        O270   1.373       .  S
C266        C267   1.419       .  A
C267        C268   1.387       .  A
C267        H271   1.077       .  S
C268        O272   1.374       .  S
O270        H274   0.992       .  S
O272        H273   0.992       .  S
C275        C276   1.417       .  A
C275        C280   1.443       .  A
C276        C277   1.408       .  A
C276        H281   1.081       .  S
C277        C278   1.401       .  A
C277        O282   1.371       .  S
C278        C279   1.386       .  A
C279        C280   1.398       .  A
C279        H283   1.085       .  S
C280        O284   1.374       .  S
O282        H286   0.992       .  S
O284        H285   0.993       .  S
C287        C288   1.393       .  A
C287        C292   1.394       .  A
C288        C289   1.404       .  A
C288        H293   1.084       .  S
C289        C290   1.433       .  A
C289        O294   1.372       .  S
C290        C291   1.418       .  A
C291        C292   1.397       .  A
C291        H295   1.067       .  S
C292        O296   1.373       .  S
O294        H298   0.993       .  S
O296        H297   0.992       .  S
C299        C300   1.391       .  A
C299        C304   1.405       .  A
C300        C301   1.390       .  A
C300        H305   1.085       .  S
C301        C302   1.434       .  A
C301        O306   1.370       .  S
C302        C303   1.416       .  A
C303        C304   1.408       .  A
C303        H307   1.083       .  S
C304        O308   1.370       .  S
O306        H310   0.992       .  S
O308        H309   0.992       .  S
O311       Zr323   2.430       .  S
O311        C313   1.287       .  A
O312       Zr659   2.422   1_556  S
O312        C313   1.285       .  A
C313        C573   1.466       .  S
O314      Zr1566   2.430       .  S
O314        C316   1.287       .  A
O315        C316   1.286       .  A
C316        C537   1.471       .  S
O317       Zr326   2.439       .  S
O317        C319   1.289       .  A
O318       Zr969   2.426       .  S
O318        C319   1.285       .  A
C319        C609   1.476       .  S
O320      Zr1563   2.442       .  S
O320        C322   1.288       .  A
O321       Zr350   2.423       .  S
O321        C322   1.285       .  A
C322        C597   1.465       .  S
Zr323      O1560   2.442       .  S
Zr323       O324   2.433       .  S
Zr323      O1565   2.435       .  S
Zr323      O1260   2.366       .  S
Zr323      O1593   2.366       .  S
Zr323       O975   2.372       .  S
O324        H367   0.990       .  S
O325      Zr1563   2.435       .  S
O325       H1606   0.990   1_455  S
O325        H370   0.990   1_455  S
Zr326      O1554   2.430       .  S
Zr326       O327   2.435       .  S
Zr326      O1568   2.435       .  S
Zr326      O1570   2.366       .  S
Zr326       O329   2.364       .  S
Zr326       O974   2.364       .  S
Zr326      O1596   2.371       .  S
O327       H1608   0.990       .  S
O327        H371   0.990       .  S
O328      Zr1566   2.435       .  S
O328       H1601   0.990   1_455  S
O329       Zr969   2.388       .  S
O330      Zr1253   2.366       .  S
O330      Zr1566   2.366       .  S
O330        H357   0.966       .  S
O331       Zr343   2.432       .  S
O331        C333   1.287       .  A
O332       Zr970   2.437   1_545  S
O332        C333   1.288       .  A
C333        C528   1.479       .  S
O334      Zr1586   2.416       .  S
O334        C336   1.284       .  A
O335       Zr349   2.449   1_545  S
O335        C336   1.291       .  A
C336        C549   1.479       .  S
O337       Zr346   2.436       .  S
O337        C339   1.286       .  A
O338       Zr660   2.427   1_545  S
O338        C339   1.286       .  A
C339        C561   1.466       .  S
O340      Zr1583   2.446       .  S
O340        C342   1.289       .  A
O341        C342   1.285       .  A
C342        C588   1.471       .  S
Zr343      O1580   2.446   1_455  S
Zr343      O1584   2.436       .  S
Zr343      O1585   2.434   1_455  S
Zr343       O351   2.371       .  S
Zr343      O1592   2.369   1_456  S
Zr343      O1595   2.362   1_445  S
Zr343       O973   2.375   1_545  S
O344      Zr1583   2.436       .  S
O344       H1604   0.990       .  S
O344       H1609   0.990       .  S
O345      Zr1583   2.434       .  S
O345       H1605   0.990       .  S
Zr346      O1574   2.416   1_455  S
Zr346       O347   2.434       .  S
Zr346      O1588   2.435       .  S
Zr346      O1282   2.375   1_455  S
Zr346       O976   2.361   1_545  S
Zr346      O1594   2.372   1_445  S
O347       H1603   0.990   1_455  S
O348      Zr1586   2.435       .  S
O348       H1602   0.990       .  S
O348       H1612   0.990       .  S
Zr349       O622   2.422       .  S
Zr349       O938   2.426       .  S
Zr349       O949   2.388       .  S
Zr349       O354   2.387       .  S
Zr350       O952   2.437       .  S
Zr350       O648   2.427   1_556  S
Zr350       O971   2.387       .  S
Zr350       O353   2.385       .  S
O351       Zr970   2.387   1_545  S
O351        H359   0.966       .  S
O352      Zr1583   2.369   1_554  S
O352      Zr1276   2.375       .  S
O353      Zr1563   2.366       .  S
O353       Zr963   2.375       .  S
O354       Zr946   2.364       .  S
O354      Zr1586   2.372   1_565  S
O354        H358   0.966       .  S
O355       Zr943   2.372       .  S
O355      Zr1583   2.362   1_565  S
O355        H360   0.966       .  S
O356      Zr1566   2.371       .  S
O356       Zr966   2.361       .  S
H361       O1568   0.990       .  S
H362       O1588   0.990       .  S
H363       O1587   0.990       .  S
H364       O1584   0.990       .  S
H365       O1585   0.990   1_455  S
H366       O1565   0.990       .  S
H368       O1567   0.990       .  S
H369       O1584   0.990       .  S
H372       O1588   0.990       .  S
C373        C489   1.583       .  S
C373        C501   1.585       .  S
C373        C513   1.578       .  S
C373        C525   1.556       .  S
C374        C465   1.602       .  S
C374        C480   1.564       .  S
C374        C516   1.594       .  S
C374        C600   1.568       .  S
C375        C444   1.586       .  S
C375        C456   1.584       .  S
C375        C468   1.591       .  S
C375        C540   1.553       .  S
C376        C429   1.578       .  S
C376        C441   1.584       .  S
C376        C492   1.602       .  S
C376        C564   1.574       .  S
C377        C405   1.619       .  S
C377        C417   1.574       .  S
C377        C504   1.601       .  S
C377        C585   1.588       .  S
C378        C393   1.583       .  S
C378        C408   1.587       .  S
C378        C432   1.628       .  S
C378        C552   1.576       .  S
C379        C381   1.584       .  S
C379        C396   1.589       .  S
C379        C453   1.582       .  S
C379        C612   1.556       .  S
C380        C384   1.583       .  S
C380        C420   1.583       .  S
C380        C477   1.572       .  S
C380        C576   1.555       .  S
C381        C382   1.423       .  A
C381        C386   1.418       .  A
C382        C383   1.407       .  A
C382        H387   1.083       .  S
C383        C384   1.421       .  A
C383        O388   1.373       .  S
C384        C385   1.406       .  A
C385        C386   1.387       .  A
C385        H389   1.057       .  S
C386        O390   1.360       .  S
O388        H392   0.992       .  S
O390        H391   0.993       .  S
C393        C394   1.420       .  A
C393        C398   1.409       .  A
C394        C395   1.419       .  A
C394        H399   1.079       .  S
C395        C396   1.417       .  A
C395        O400   1.371       .  S
C396        C397   1.418       .  A
C397        C398   1.407       .  A
C397        H401   1.081       .  S
C398        O402   1.367       .  S
O400        H404   0.991       .  S
O402        H403   0.992       .  S
C405        C406   1.420       .  A
C405        C410   1.434       .  A
C406        C407   1.396       .  A
C406        H411   1.073       .  S
C407        C408   1.414       .  A
C407        O412   1.366       .  S
C408        C409   1.421       .  A
C409        C410   1.419       .  A
C409        H413   1.082       .  S
C410        O414   1.362       .  S
O412        H416   0.992       .  S
O414        H415   0.992       .  S
C417        C418   1.424       .  A
C417        C422   1.411       .  A
C418        C419   1.421       .  A
C418        H423   1.083       .  S
C419        C420   1.413       .  A
C419        O424   1.379       .  S
C420        C421   1.415       .  A
C421        C422   1.394       .  A
C421        H425   1.076       .  S
C422        O426   1.368       .  S
O424        H428   0.992       .  S
O426        H427   0.991       .  S
C429        C430   1.403       .  A
C429        C434   1.420       .  A
C430        C431   1.390       .  A
C430        H435   1.076       .  S
C431        C432   1.440       .  A
C431        O436   1.363       .  S
C432        C433   1.429       .  A
C433        C434   1.421       .  A
C433        H437   1.064       .  S
C434        O438   1.372       .  S
O436        H440   0.993       .  S
O438        H439   0.992       .  S
C441        C442   1.432       .  A
C441        C446   1.419       .  A
C442        C443   1.421       .  A
C442        H447   1.083       .  S
C443        C444   1.412       .  A
C443        O448   1.371       .  S
C444        C445   1.406       .  A
C445        C446   1.383       .  A
C445        H449   1.080       .  S
C446        O450   1.353       .  S
O448        H452   0.991       .  S
O450        H451   0.993       .  S
C453        C454   1.403       .  A
C453        C458   1.425       .  A
C454        C455   1.387       .  A
C454        H459   1.074       .  S
C455        C456   1.416       .  A
C455        O460   1.377       .  S
C456        C457   1.419       .  A
C457        C458   1.428       .  A
C457        H461   1.081       .  S
C458        O462   1.370       .  S
O460        H464   0.991       .  S
O462        H463   0.992       .  S
C465        C466   1.409       .  A
C465        C470   1.438       .  A
C466        C467   1.407       .  A
C466        H471   1.065       .  S
C467        C468   1.422       .  A
C467        O472   1.365       .  S
C468        C469   1.412       .  A
C469        C470   1.402       .  A
C469        H473   1.084       .  S
C470        O474   1.376       .  S
O472        H476   0.991       .  S
O474        H475   0.993       .  S
C477        C478   1.419       .  A
C477        C482   1.420       .  A
C478        C479   1.422       .  A
C478        H483   1.078       .  S
C479        C480   1.422       .  A
C479        O484   1.370       .  S
C480        C481   1.405       .  A
C481        C482   1.375       .  A
C481        H485   1.083       .  S
C482        O486   1.368       .  S
O484        H488   0.992       .  S
O486        H487   0.984       .  S
C489        C490   1.405       .  A
C489        C494   1.419       .  A
C490        C491   1.386       .  A
C490        H495   1.074       .  S
C491        C492   1.429       .  A
C491        O496   1.361       .  S
C492        C493   1.425       .  A
C493        C494   1.417       .  A
C493        H497   1.067       .  S
C494        O498   1.373       .  S
O496        H500   0.990       .  S
O498        H499   0.992       .  S
C501        C502   1.397       .  A
C501        C506   1.423       .  A
C502        C503   1.383       .  A
C502        H507   1.077       .  S
C503        C504   1.420       .  A
C503        O508   1.357       .  S
C504        C505   1.430       .  A
C505        C506   1.431       .  A
C505        H509   1.077       .  S
C506        O510   1.369       .  S
O508        H512   0.991       .  S
O510        H511   0.991       .  S
C513        C514   1.405       .  A
C513        C518   1.421       .  A
C514        C515   1.394       .  A
C514        H519   1.077       .  S
C515        C516   1.424       .  A
C515        O520   1.370       .  S
C516        C517   1.418       .  A
C517        C518   1.418       .  A
C517        H521   1.082       .  S
C518        O522   1.370       .  S
O520        H524   0.991       .  S
O522        H523   0.991       .  S
C525        C526   1.415       .  A
C525        C530   1.424       .  A
C526        C527   1.393       .  A
C526        H531   1.078       .  S
C527        C528   1.404       .  A
C527        O532   1.372       .  S
C528        C529   1.401       .  A
C529        C530   1.407       .  A
C529        H533   1.084       .  S
C530        O534   1.372       .  S
O532        H536   0.992       .  S
O534        H535   0.992       .  S
C537        C538   1.400       .  A
C537        C542   1.400       .  A
C538        C539   1.407       .  A
C538        H543   1.084       .  S
C539        C540   1.423       .  A
C539        O544   1.372       .  S
C540        C541   1.417       .  A
C541        C542   1.390       .  A
C541        H545   1.079       .  S
C542        O546   1.373       .  S
O544        H548   0.992       .  S
O546        H547   0.991       .  S
C549        C550   1.399       .  A
C549        C554   1.399       .  A
C550        C551   1.399       .  A
C550        H555   1.084       .  S
C551        C552   1.431       .  A
C551        O556   1.372       .  S
C552        C553   1.419       .  A
C553        C554   1.403       .  A
C553        H557   1.073       .  S
C554        O558   1.372       .  S
O556        H560   0.992       .  S
O558        H559   0.992       .  S
C561        C562   1.391       .  A
C561        C566   1.399       .  A
C562        C563   1.400       .  A
C562        H567   1.085       .  S
C563        C564   1.434       .  A
C563        O568   1.374       .  S
C564        C565   1.418       .  A
C565        C566   1.402       .  A
C565        H569   1.079       .  S
C566        O570   1.371       .  S
O568        H572   0.993       .  S
O570        H571   0.992       .  S
C573        C574   1.398       .  A
C573        C578   1.397       .  A
C574        C575   1.407       .  A
C574        H579   1.082       .  S
C575        C576   1.424       .  A
C575        O580   1.373       .  S
C576        C577   1.419       .  A
C577        C578   1.387       .  A
C577        H581   1.077       .  S
C578        O582   1.374       .  S
O580        H584   0.992       .  S
O582        H583   0.992       .  S
C585        C586   1.417       .  A
C585        C590   1.443       .  A
C586        C587   1.408       .  A
C586        H591   1.081       .  S
C587        C588   1.401       .  A
C587        O592   1.371       .  S
C588        C589   1.386       .  A
C589        C590   1.398       .  A
C589        H593   1.085       .  S
C590        O594   1.374       .  S
O592        H596   0.992       .  S
O594        H595   0.993       .  S
C597        C598   1.393       .  A
C597        C602   1.394       .  A
C598        C599   1.404       .  A
C598        H603   1.084       .  S
C599        C600   1.433       .  A
C599        O604   1.372       .  S
C600        C601   1.418       .  A
C601        C602   1.397       .  A
C601        H605   1.067       .  S
C602        O606   1.373       .  S
O604        H608   0.993       .  S
O606        H607   0.992       .  S
C609        C610   1.391       .  A
C609        C614   1.405       .  A
C610        C611   1.390       .  A
C610        H615   1.085       .  S
C611        C612   1.434       .  A
C611        O616   1.370       .  S
C612        C613   1.416       .  A
C613        C614   1.408       .  A
C613        H617   1.083       .  S
C614        O618   1.370       .  S
O616        H620   0.992       .  S
O618        H619   0.992       .  S
O621       Zr633   2.430       .  S
O621        C623   1.287       .  A
O622        C623   1.285       .  A
C623        C883   1.466       .  S
O624      Zr1876   2.430       .  S
O624        C626   1.287       .  A
O625       Zr970   2.428   1_554  S
O625        C626   1.286       .  A
C626        C847   1.471       .  S
O627       Zr636   2.439       .  S
O627        C629   1.289       .  A
O628        C629   1.285       .  A
C629        C919   1.476       .  S
O630      Zr1873   2.442       .  S
O630        C632   1.288       .  A
O631       Zr660   2.423       .  S
O631        C632   1.285       .  A
C632        C907   1.465       .  S
Zr633      O1870   2.442       .  S
Zr633       O634   2.433       .  S
Zr633      O1875   2.435       .  S
Zr633       O949   2.372       .  S
Zr633      O2190   2.366       .  S
Zr633      O1903   2.366       .  S
O634        H677   0.990       .  S
O635      Zr1873   2.435       .  S
O635       H1916   0.990   1_455  S
O635        H680   0.990   1_455  S
Zr636      O1864   2.430       .  S
Zr636       O637   2.435       .  S
Zr636      O1878   2.435       .  S
Zr636      O1880   2.366   1_554  S
Zr636       O639   2.364       .  S
Zr636      O1906   2.371       .  S
O637       H1918   0.990       .  S
O637        H681   0.990       .  S
O638      Zr1876   2.435       .  S
O638       H1911   0.990   1_455  S
O639       Zr943   2.372   1_554  S
O640      Zr2183   2.366       .  S
O640      Zr1876   2.366   1_556  S
O640       Zr970   2.389       .  S
O640        H667   0.966       .  S
O641       Zr653   2.432       .  S
O641        C643   1.287       .  A
O642        C643   1.288       .  A
C643        C838   1.479       .  S
O644      Zr1896   2.416       .  S
O644        C646   1.284       .  A
O645       Zr659   2.449       .  S
O645        C646   1.291       .  A
C646        C859   1.479       .  S
O647       Zr656   2.436       .  S
O647        C649   1.286       .  A
O648        C649   1.286       .  A
C649        C871   1.466       .  S
O650      Zr1893   2.446       .  S
O650        C652   1.289       .  A
O651       Zr969   2.428       .  S
O651        C652   1.285       .  A
C652        C898   1.471       .  S
Zr653      O1890   2.446   1_455  S
Zr653      O1894   2.436       .  S
Zr653      O1895   2.434   1_455  S
Zr653       O661   2.371       .  S
Zr653      O1902   2.369   1_455  S
Zr653      O1905   2.362   1_455  S
O654      Zr1893   2.436       .  S
O654       H1914   0.990       .  S
O654       H1919   0.990       .  S
O655      Zr1893   2.434       .  S
O655       H1915   0.990       .  S
Zr656      O1884   2.416   1_455  S
Zr656       O657   2.434       .  S
Zr656      O1898   2.435       .  S
Zr656      O2212   2.375   1_455  S
Zr656       O971   2.366   1_554  S
Zr656      O1904   2.372   1_455  S
O657       H1913   0.990   1_455  S
O658      Zr1896   2.435       .  S
O658       H1912   0.990       .  S
O658       H1922   0.990       .  S
Zr659       O961   2.428   1_554  S
Zr659       O972   2.387       .  S
Zr659       O664   2.387       .  S
Zr659       O975   2.390   1_554  S
Zr660       O935   2.428       .  S
Zr660       O950   2.389       .  S
Zr660       O663   2.385       .  S
Zr660       O976   2.383       .  S
O661       Zr966   2.366       .  S
O661        H669   0.966       .  S
O662      Zr1893   2.369       .  S
O662      Zr2206   2.375       .  S
O662       Zr969   2.387       .  S
O663      Zr1873   2.366       .  S
O664      Zr1896   2.372       .  S
O664        H668   0.966       .  S
O665      Zr1893   2.362       .  S
O665       Zr969   2.390       .  S
O665        H670   0.966       .  S
O666      Zr1876   2.371       .  S
O666       Zr970   2.383   1_554  S
H671       O1878   0.990       .  S
H672       O1898   0.990       .  S
H673       O1897   0.990       .  S
H674       O1894   0.990       .  S
H675       O1895   0.990   1_455  S
H676       O1875   0.990       .  S
H678       O1877   0.990       .  S
H679       O1894   0.990       .  S
H682       O1898   0.990       .  S
C683        C799   1.583       .  S
C683        C811   1.585       .  S
C683        C823   1.578       .  S
C683        C835   1.556       .  S
C684        C775   1.602       .  S
C684        C790   1.564       .  S
C684        C826   1.594       .  S
C684        C910   1.568       .  S
C685        C754   1.586       .  S
C685        C766   1.584       .  S
C685        C778   1.591       .  S
C685        C850   1.553       .  S
C686        C739   1.578       .  S
C686        C751   1.584       .  S
C686        C802   1.602       .  S
C686        C874   1.574       .  S
C687        C715   1.619       .  S
C687        C727   1.574       .  S
C687        C814   1.601       .  S
C687        C895   1.588       .  S
C688        C703   1.583       .  S
C688        C718   1.587       .  S
C688        C742   1.628       .  S
C688        C862   1.576       .  S
C689        C691   1.584       .  S
C689        C706   1.589       .  S
C689        C763   1.582       .  S
C689        C922   1.556       .  S
C690        C694   1.583       .  S
C690        C730   1.583       .  S
C690        C787   1.572       .  S
C690        C886   1.555       .  S
C691        C692   1.423       .  A
C691        C696   1.418       .  A
C692        C693   1.407       .  A
C692        H697   1.083       .  S
C693        C694   1.421       .  A
C693        O698   1.373       .  S
C694        C695   1.406       .  A
C695        C696   1.387       .  A
C695        H699   1.057       .  S
C696        O700   1.360       .  S
O698        H702   0.992       .  S
O700        H701   0.993       .  S
C703        C704   1.420       .  A
C703        C708   1.409       .  A
C704        C705   1.419       .  A
C704        H709   1.079       .  S
C705        C706   1.417       .  A
C705        O710   1.371       .  S
C706        C707   1.418       .  A
C707        C708   1.407       .  A
C707        H711   1.081       .  S
C708        O712   1.367       .  S
O710        H714   0.991       .  S
O712        H713   0.992       .  S
C715        C716   1.420       .  A
C715        C720   1.434       .  A
C716        C717   1.396       .  A
C716        H721   1.073       .  S
C717        C718   1.414       .  A
C717        O722   1.366       .  S
C718        C719   1.421       .  A
C719        C720   1.419       .  A
C719        H723   1.082       .  S
C720        O724   1.362       .  S
O722        H726   0.992       .  S
O724        H725   0.992       .  S
C727        C728   1.424       .  A
C727        C732   1.411       .  A
C728        C729   1.421       .  A
C728        H733   1.083       .  S
C729        C730   1.413       .  A
C729        O734   1.379       .  S
C730        C731   1.415       .  A
C731        C732   1.394       .  A
C731        H735   1.076       .  S
C732        O736   1.368       .  S
O734        H738   0.992       .  S
O736        H737   0.991       .  S
C739        C740   1.403       .  A
C739        C744   1.420       .  A
C740        C741   1.390       .  A
C740        H745   1.076       .  S
C741        C742   1.440       .  A
C741        O746   1.363       .  S
C742        C743   1.429       .  A
C743        C744   1.421       .  A
C743        H747   1.064       .  S
C744        O748   1.372       .  S
O746        H750   0.993       .  S
O748        H749   0.992       .  S
C751        C752   1.432       .  A
C751        C756   1.419       .  A
C752        C753   1.421       .  A
C752        H757   1.083       .  S
C753        C754   1.412       .  A
C753        O758   1.371       .  S
C754        C755   1.406       .  A
C755        C756   1.383       .  A
C755        H759   1.080       .  S
C756        O760   1.353       .  S
O758        H762   0.991       .  S
O760        H761   0.993       .  S
C763        C764   1.403       .  A
C763        C768   1.425       .  A
C764        C765   1.387       .  A
C764        H769   1.074       .  S
C765        C766   1.416       .  A
C765        O770   1.377       .  S
C766        C767   1.419       .  A
C767        C768   1.428       .  A
C767        H771   1.081       .  S
C768        O772   1.370       .  S
O770        H774   0.991       .  S
O772        H773   0.992       .  S
C775        C776   1.409       .  A
C775        C780   1.438       .  A
C776        C777   1.407       .  A
C776        H781   1.065       .  S
C777        C778   1.422       .  A
C777        O782   1.365       .  S
C778        C779   1.412       .  A
C779        C780   1.402       .  A
C779        H783   1.084       .  S
C780        O784   1.376       .  S
O782        H786   0.991       .  S
O784        H785   0.993       .  S
C787        C788   1.419       .  A
C787        C792   1.420       .  A
C788        C789   1.422       .  A
C788        H793   1.078       .  S
C789        C790   1.422       .  A
C789        O794   1.370       .  S
C790        C791   1.405       .  A
C791        C792   1.375       .  A
C791        H795   1.083       .  S
C792        O796   1.368       .  S
O794        H798   0.992       .  S
O796        H797   0.984       .  S
C799        C800   1.405       .  A
C799        C804   1.419       .  A
C800        C801   1.386       .  A
C800        H805   1.074       .  S
C801        C802   1.429       .  A
C801        O806   1.361       .  S
C802        C803   1.425       .  A
C803        C804   1.417       .  A
C803        H807   1.067       .  S
C804        O808   1.373       .  S
O806        H810   0.990       .  S
O808        H809   0.992       .  S
C811        C812   1.397       .  A
C811        C816   1.423       .  A
C812        C813   1.383       .  A
C812        H817   1.077       .  S
C813        C814   1.420       .  A
C813        O818   1.357       .  S
C814        C815   1.430       .  A
C815        C816   1.431       .  A
C815        H819   1.077       .  S
C816        O820   1.369       .  S
O818        H822   0.991       .  S
O820        H821   0.991       .  S
C823        C824   1.405       .  A
C823        C828   1.421       .  A
C824        C825   1.394       .  A
C824        H829   1.077       .  S
C825        C826   1.424       .  A
C825        O830   1.370       .  S
C826        C827   1.418       .  A
C827        C828   1.418       .  A
C827        H831   1.082       .  S
C828        O832   1.370       .  S
O830        H834   0.991       .  S
O832        H833   0.991       .  S
C835        C836   1.415       .  A
C835        C840   1.424       .  A
C836        C837   1.393       .  A
C836        H841   1.078       .  S
C837        C838   1.404       .  A
C837        O842   1.372       .  S
C838        C839   1.401       .  A
C839        C840   1.407       .  A
C839        H843   1.084       .  S
C840        O844   1.372       .  S
O842        H846   0.992       .  S
O844        H845   0.992       .  S
C847        C848   1.400       .  A
C847        C852   1.400       .  A
C848        C849   1.407       .  A
C848        H853   1.084       .  S
C849        C850   1.423       .  A
C849        O854   1.372       .  S
C850        C851   1.417       .  A
C851        C852   1.390       .  A
C851        H855   1.079       .  S
C852        O856   1.373       .  S
O854        H858   0.992       .  S
O856        H857   0.991       .  S
C859        C860   1.399       .  A
C859        C864   1.399       .  A
C860        C861   1.399       .  A
C860        H865   1.084       .  S
C861        C862   1.431       .  A
C861        O866   1.372       .  S
C862        C863   1.419       .  A
C863        C864   1.403       .  A
C863        H867   1.073       .  S
C864        O868   1.372       .  S
O866        H870   0.992       .  S
O868        H869   0.992       .  S
C871        C872   1.391       .  A
C871        C876   1.399       .  A
C872        C873   1.400       .  A
C872        H877   1.085       .  S
C873        C874   1.434       .  A
C873        O878   1.374       .  S
C874        C875   1.418       .  A
C875        C876   1.402       .  A
C875        H879   1.079       .  S
C876        O880   1.371       .  S
O878        H882   0.993       .  S
O880        H881   0.992       .  S
C883        C884   1.398       .  A
C883        C888   1.397       .  A
C884        C885   1.407       .  A
C884        H889   1.082       .  S
C885        C886   1.424       .  A
C885        O890   1.373       .  S
C886        C887   1.419       .  A
C887        C888   1.387       .  A
C887        H891   1.077       .  S
C888        O892   1.374       .  S
O890        H894   0.992       .  S
O892        H893   0.992       .  S
C895        C896   1.417       .  A
C895        C900   1.443       .  A
C896        C897   1.408       .  A
C896        H901   1.081       .  S
C897        C898   1.401       .  A
C897        O902   1.371       .  S
C898        C899   1.386       .  A
C899        C900   1.398       .  A
C899        H903   1.085       .  S
C900        O904   1.374       .  S
O902        H906   0.992       .  S
O904        H905   0.993       .  S
C907        C908   1.393       .  A
C907        C912   1.394       .  A
C908        C909   1.404       .  A
C908        H913   1.084       .  S
C909        C910   1.433       .  A
C909        O914   1.372       .  S
C910        C911   1.418       .  A
C911        C912   1.397       .  A
C911        H915   1.067       .  S
C912        O916   1.373       .  S
O914        H918   0.993       .  S
O916        H917   0.992       .  S
C919        C920   1.391       .  A
C919        C924   1.405       .  A
C920        C921   1.390       .  A
C920        H925   1.085       .  S
C921        C922   1.434       .  A
C921        O926   1.370       .  S
C922        C923   1.416       .  A
C923        C924   1.408       .  A
C923        H927   1.083       .  S
C924        O928   1.370       .  S
O926        H930   0.992       .  S
O928        H929   0.992       .  S
O931       Zr943   2.430       .  S
O931        C933   1.287       .  A
O932        C933   1.285       .  A
C933       C1193   1.466       .  S
O934      Zr2186   2.430       .  S
O934        C936   1.287       .  A
O935        C936   1.286       .  A
C936       C1157   1.471       .  S
O937       Zr946   2.439       .  S
O937        C939   1.289       .  A
O938        C939   1.285       .  A
C939       C1229   1.476       .  S
O940      Zr2183   2.442       .  S
O940        C942   1.288       .  A
O941       Zr970   2.423       .  S
O941        C942   1.285       .  A
C942       C1217   1.465       .  S
Zr943      O2180   2.442       .  S
Zr943       O944   2.433       .  S
Zr943      O2185   2.435       .  S
Zr943      O1880   2.366       .  S
Zr943      O2213   2.366       .  S
O944        H987   0.990       .  S
O945      Zr2183   2.435       .  S
O945       H2226   0.990   1_455  S
O945        H990   0.990   1_455  S
Zr946      O2174   2.430       .  S
Zr946       O947   2.435       .  S
Zr946      O2188   2.435       .  S
Zr946      O2190   2.366       .  S
Zr946       O949   2.364       .  S
Zr946      O2216   2.371       .  S
O947       H2228   0.990       .  S
O947        H991   0.990       .  S
O948      Zr2186   2.435       .  S
O948       H2221   0.990   1_455  S
O950      Zr1873   2.366       .  S
O950      Zr2186   2.366       .  S
O950        H977   0.966       .  S
O951       Zr963   2.432       .  S
O951        C953   1.287       .  A
O952        C953   1.288       .  A
C953       C1148   1.479       .  S
O954      Zr2206   2.416       .  S
O954        C956   1.284       .  A
O955       Zr969   2.449       .  S
O955        C956   1.291       .  A
C956       C1169   1.479       .  S
O957       Zr966   2.436       .  S
O957        C959   1.286       .  A
O958        C959   1.286       .  A
C959       C1181   1.466       .  S
O960      Zr2203   2.446       .  S
O960        C962   1.289       .  A
O961        C962   1.285       .  A
C962       C1208   1.471       .  S
Zr963      O2200   2.446   1_455  S
Zr963      O2204   2.436       .  S
Zr963      O2205   2.434   1_455  S
Zr963       O971   2.371       .  S
Zr963      O2212   2.369   1_456  S
Zr963      O2215   2.362   1_455  S
O964      Zr2203   2.436       .  S
O964       H2224   0.990       .  S
O964       H2229   0.990       .  S
O965      Zr2203   2.434       .  S
O965       H2225   0.990       .  S
Zr966      O2194   2.416   1_455  S
Zr966       O967   2.434       .  S
Zr966      O2208   2.435       .  S
Zr966      O1902   2.375   1_455  S
Zr966      O2214   2.372   1_455  S
O967       H2223   0.990   1_455  S
O968      Zr2206   2.435       .  S
O968       H2222   0.990       .  S
O968       H2232   0.990       .  S
Zr969       O974   2.387       .  S
Zr970       O973   2.385       .  S
O971        H979   0.966       .  S
O972      Zr2203   2.369   1_554  S
O972      Zr1896   2.375       .  S
O973      Zr2183   2.366       .  S
O974      Zr2206   2.372       .  S
O974        H978   0.966       .  S
O975      Zr2203   2.362       .  S
O975        H980   0.966       .  S
O976      Zr2186   2.371       .  S
H981       O2188   0.990       .  S
H982       O2208   0.990       .  S
H983       O2207   0.990       .  S
H984       O2204   0.990       .  S
H985       O2205   0.990   1_455  S
H986       O2185   0.990       .  S
H988       O2187   0.990       .  S
H989       O2204   0.990       .  S
H992       O2208   0.990       .  S
C993       C1109   1.583       .  S
C993       C1121   1.585       .  S
C993       C1133   1.578       .  S
C993       C1145   1.556       .  S
C994       C1085   1.602       .  S
C994       C1100   1.564       .  S
C994       C1136   1.594       .  S
C994       C1220   1.568       .  S
C995       C1064   1.586       .  S
C995       C1076   1.584       .  S
C995       C1088   1.591       .  S
C995       C1160   1.553       .  S
C996       C1049   1.578       .  S
C996       C1061   1.584       .  S
C996       C1112   1.602       .  S
C996       C1184   1.574       .  S
C997       C1025   1.619       .  S
C997       C1037   1.574       .  S
C997       C1124   1.601       .  S
C997       C1205   1.588       .  S
C998       C1013   1.583       .  S
C998       C1028   1.587       .  S
C998       C1052   1.628       .  S
C998       C1172   1.576       .  S
C999       C1001   1.584       .  S
C999       C1016   1.589       .  S
C999       C1073   1.582       .  S
C999       C1232   1.556       .  S
C1000      C1004   1.583       .  S
C1000      C1040   1.583       .  S
C1000      C1097   1.572       .  S
C1000      C1196   1.555       .  S
C1001      C1002   1.423       .  A
C1001      C1006   1.418       .  A
C1002      C1003   1.407       .  A
C1002      H1007   1.083       .  S
C1003      C1004   1.421       .  A
C1003      O1008   1.373       .  S
C1004      C1005   1.406       .  A
C1005      C1006   1.387       .  A
C1005      H1009   1.057       .  S
C1006      O1010   1.360       .  S
O1008      H1012   0.992       .  S
O1010      H1011   0.993       .  S
C1013      C1014   1.420       .  A
C1013      C1018   1.409       .  A
C1014      C1015   1.419       .  A
C1014      H1019   1.079       .  S
C1015      C1016   1.417       .  A
C1015      O1020   1.371       .  S
C1016      C1017   1.418       .  A
C1017      C1018   1.407       .  A
C1017      H1021   1.081       .  S
C1018      O1022   1.367       .  S
O1020      H1024   0.991       .  S
O1022      H1023   0.992       .  S
C1025      C1026   1.420       .  A
C1025      C1030   1.434       .  A
C1026      C1027   1.396       .  A
C1026      H1031   1.073       .  S
C1027      C1028   1.414       .  A
C1027      O1032   1.366       .  S
C1028      C1029   1.421       .  A
C1029      C1030   1.419       .  A
C1029      H1033   1.082       .  S
C1030      O1034   1.362       .  S
O1032      H1036   0.992       .  S
O1034      H1035   0.992       .  S
C1037      C1038   1.424       .  A
C1037      C1042   1.411       .  A
C1038      C1039   1.421       .  A
C1038      H1043   1.083       .  S
C1039      C1040   1.413       .  A
C1039      O1044   1.379       .  S
C1040      C1041   1.415       .  A
C1041      C1042   1.394       .  A
C1041      H1045   1.076       .  S
C1042      O1046   1.368       .  S
O1044      H1048   0.992       .  S
O1046      H1047   0.991       .  S
C1049      C1050   1.403       .  A
C1049      C1054   1.420       .  A
C1050      C1051   1.390       .  A
C1050      H1055   1.076       .  S
C1051      C1052   1.440       .  A
C1051      O1056   1.363       .  S
C1052      C1053   1.429       .  A
C1053      C1054   1.421       .  A
C1053      H1057   1.064       .  S
C1054      O1058   1.372       .  S
O1056      H1060   0.993       .  S
O1058      H1059   0.992       .  S
C1061      C1062   1.432       .  A
C1061      C1066   1.419       .  A
C1062      C1063   1.421       .  A
C1062      H1067   1.083       .  S
C1063      C1064   1.412       .  A
C1063      O1068   1.371       .  S
C1064      C1065   1.406       .  A
C1065      C1066   1.383       .  A
C1065      H1069   1.080       .  S
C1066      O1070   1.353       .  S
O1068      H1072   0.991       .  S
O1070      H1071   0.993       .  S
C1073      C1074   1.403       .  A
C1073      C1078   1.425       .  A
C1074      C1075   1.387       .  A
C1074      H1079   1.074       .  S
C1075      C1076   1.416       .  A
C1075      O1080   1.377       .  S
C1076      C1077   1.419       .  A
C1077      C1078   1.428       .  A
C1077      H1081   1.081       .  S
C1078      O1082   1.370       .  S
O1080      H1084   0.991       .  S
O1082      H1083   0.992       .  S
C1085      C1086   1.409       .  A
C1085      C1090   1.438       .  A
C1086      C1087   1.407       .  A
C1086      H1091   1.065       .  S
C1087      C1088   1.422       .  A
C1087      O1092   1.365       .  S
C1088      C1089   1.412       .  A
C1089      C1090   1.402       .  A
C1089      H1093   1.084       .  S
C1090      O1094   1.376       .  S
O1092      H1096   0.991       .  S
O1094      H1095   0.993       .  S
C1097      C1098   1.419       .  A
C1097      C1102   1.420       .  A
C1098      C1099   1.422       .  A
C1098      H1103   1.078       .  S
C1099      C1100   1.422       .  A
C1099      O1104   1.370       .  S
C1100      C1101   1.405       .  A
C1101      C1102   1.375       .  A
C1101      H1105   1.083       .  S
C1102      O1106   1.368       .  S
O1104      H1108   0.992       .  S
O1106      H1107   0.984       .  S
C1109      C1110   1.405       .  A
C1109      C1114   1.419       .  A
C1110      C1111   1.386       .  A
C1110      H1115   1.074       .  S
C1111      C1112   1.429       .  A
C1111      O1116   1.361       .  S
C1112      C1113   1.425       .  A
C1113      C1114   1.417       .  A
C1113      H1117   1.067       .  S
C1114      O1118   1.373       .  S
O1116      H1120   0.990       .  S
O1118      H1119   0.992       .  S
C1121      C1122   1.397       .  A
C1121      C1126   1.423       .  A
C1122      C1123   1.383       .  A
C1122      H1127   1.077       .  S
C1123      C1124   1.420       .  A
C1123      O1128   1.357       .  S
C1124      C1125   1.430       .  A
C1125      C1126   1.431       .  A
C1125      H1129   1.077       .  S
C1126      O1130   1.369       .  S
O1128      H1132   0.991       .  S
O1130      H1131   0.991       .  S
C1133      C1134   1.405       .  A
C1133      C1138   1.421       .  A
C1134      C1135   1.394       .  A
C1134      H1139   1.077       .  S
C1135      C1136   1.424       .  A
C1135      O1140   1.370       .  S
C1136      C1137   1.418       .  A
C1137      C1138   1.418       .  A
C1137      H1141   1.082       .  S
C1138      O1142   1.370       .  S
O1140      H1144   0.991       .  S
O1142      H1143   0.991       .  S
C1145      C1146   1.415       .  A
C1145      C1150   1.424       .  A
C1146      C1147   1.393       .  A
C1146      H1151   1.078       .  S
C1147      C1148   1.404       .  A
C1147      O1152   1.372       .  S
C1148      C1149   1.401       .  A
C1149      C1150   1.407       .  A
C1149      H1153   1.084       .  S
C1150      O1154   1.372       .  S
O1152      H1156   0.992       .  S
O1154      H1155   0.992       .  S
C1157      C1158   1.400       .  A
C1157      C1162   1.400       .  A
C1158      C1159   1.407       .  A
C1158      H1163   1.084       .  S
C1159      C1160   1.423       .  A
C1159      O1164   1.372       .  S
C1160      C1161   1.417       .  A
C1161      C1162   1.390       .  A
C1161      H1165   1.079       .  S
C1162      O1166   1.373       .  S
O1164      H1168   0.992       .  S
O1166      H1167   0.991       .  S
C1169      C1170   1.399       .  A
C1169      C1174   1.399       .  A
C1170      C1171   1.399       .  A
C1170      H1175   1.084       .  S
C1171      C1172   1.431       .  A
C1171      O1176   1.372       .  S
C1172      C1173   1.419       .  A
C1173      C1174   1.403       .  A
C1173      H1177   1.073       .  S
C1174      O1178   1.372       .  S
O1176      H1180   0.992       .  S
O1178      H1179   0.992       .  S
C1181      C1182   1.391       .  A
C1181      C1186   1.399       .  A
C1182      C1183   1.400       .  A
C1182      H1187   1.085       .  S
C1183      C1184   1.434       .  A
C1183      O1188   1.374       .  S
C1184      C1185   1.418       .  A
C1185      C1186   1.402       .  A
C1185      H1189   1.079       .  S
C1186      O1190   1.371       .  S
O1188      H1192   0.993       .  S
O1190      H1191   0.992       .  S
C1193      C1194   1.398       .  A
C1193      C1198   1.397       .  A
C1194      C1195   1.407       .  A
C1194      H1199   1.082       .  S
C1195      C1196   1.424       .  A
C1195      O1200   1.373       .  S
C1196      C1197   1.419       .  A
C1197      C1198   1.387       .  A
C1197      H1201   1.077       .  S
C1198      O1202   1.374       .  S
O1200      H1204   0.992       .  S
O1202      H1203   0.992       .  S
C1205      C1206   1.417       .  A
C1205      C1210   1.443       .  A
C1206      C1207   1.408       .  A
C1206      H1211   1.081       .  S
C1207      C1208   1.401       .  A
C1207      O1212   1.371       .  S
C1208      C1209   1.386       .  A
C1209      C1210   1.398       .  A
C1209      H1213   1.085       .  S
C1210      O1214   1.374       .  S
O1212      H1216   0.992       .  S
O1214      H1215   0.993       .  S
C1217      C1218   1.393       .  A
C1217      C1222   1.394       .  A
C1218      C1219   1.404       .  A
C1218      H1223   1.084       .  S
C1219      C1220   1.433       .  A
C1219      O1224   1.372       .  S
C1220      C1221   1.418       .  A
C1221      C1222   1.397       .  A
C1221      H1225   1.067       .  S
C1222      O1226   1.373       .  S
O1224      H1228   0.993       .  S
O1226      H1227   0.992       .  S
C1229      C1230   1.391       .  A
C1229      C1234   1.405       .  A
C1230      C1231   1.390       .  A
C1230      H1235   1.085       .  S
C1231      C1232   1.434       .  A
C1231      O1236   1.370       .  S
C1232      C1233   1.416       .  A
C1233      C1234   1.408       .  A
C1233      H1237   1.083       .  S
C1234      O1238   1.370       .  S
O1236      H1240   0.992       .  S
O1238      H1239   0.992       .  S
O1241     Zr1253   2.430   1_655  S
O1241      C1243   1.287       .  A
O1242     Zr2209   2.422       .  S
O1242      C1243   1.285       .  A
C1243      C1503   1.466       .  S
O1244      C1246   1.287       .  A
O1245     Zr1590   2.428   1_554  S
O1245      C1246   1.286       .  A
C1246      C1467   1.471       .  S
O1247     Zr1256   2.439   1_655  S
O1247      C1249   1.289       .  A
O1248     Zr1899   2.426       .  S
O1248      C1249   1.285       .  A
C1249      C1539   1.476       .  S
O1250      C1252   1.288       .  A
O1251     Zr1280   2.423       .  S
O1251      C1252   1.285       .  A
C1252      C1527   1.465       .  S
Zr1253     O1254   2.433       .  S
Zr1253     O1569   2.372   1_455  S
Zr1253     O1905   2.372   1_455  S
O1254      H1297   0.990   1_455  S
O1255      H1300   0.990       .  S
Zr1256     O1257   2.435       .  S
Zr1256     O1259   2.364   1_455  S
Zr1256     O1904   2.364   1_455  S
O1257      H1301   0.990       .  S
O1259     Zr1563   2.372   1_654  S
O1259     Zr1899   2.388       .  S
O1260     Zr1590   2.389       .  S
O1260      H1287   0.966       .  S
O1261     Zr1273   2.432       .  S
O1261      C1263   1.287       .  A
O1262     Zr1900   2.437   1_545  S
O1262      C1263   1.288       .  A
C1263      C1458   1.479       .  S
O1264      C1266   1.284       .  A
O1265     Zr1279   2.449   1_545  S
O1265      C1266   1.291       .  A
C1266      C1479   1.479       .  S
O1267     Zr1276   2.436       .  S
O1267      C1269   1.286       .  A
O1268     Zr2210   2.427   1_544  S
O1268      C1269   1.286       .  A
C1269      C1491   1.466       .  S
O1270      C1272   1.289       .  A
O1271     Zr1589   2.428   1_545  S
O1271      C1272   1.285       .  A
C1272      C1518   1.471       .  S
Zr1273     O1281   2.371       .  S
Zr1273     O1903   2.375   1_545  S
Zr1276     O1277   2.434       .  S
Zr1276     O1591   2.366   1_554  S
Zr1276     O1906   2.361   1_545  S
Zr1279     O2172   2.422   1_554  S
Zr1279     O1868   2.426       .  S
Zr1279     O1581   2.428   1_564  S
Zr1279     O1879   2.388       .  S
Zr1279     O1592   2.387   1_565  S
Zr1279     O1284   2.387       .  S
Zr1279     O1595   2.390   1_554  S
Zr1280     O1555   2.428       .  S
Zr1280     O1882   2.437       .  S
Zr1280     O2198   2.427       .  S
Zr1280     O1570   2.389       .  S
Zr1280     O1901   2.387       .  S
Zr1280     O1283   2.385       .  S
Zr1280     O1596   2.383       .  S
O1281     Zr1586   2.366       .  S
O1281     Zr1900   2.387   1_545  S
O1281      H1289   0.966       .  S
O1282     Zr1589   2.387   1_545  S
O1283     Zr1893   2.375       .  S
O1284     Zr1876   2.364   1_655  S
O1284      H1288   0.966       .  S
O1285     Zr1873   2.372   1_655  S
O1285     Zr1589   2.390       .  S
O1285      H1290   0.966       .  S
O1286     Zr1896   2.361       .  S
O1286     Zr1590   2.383   1_554  S
C1303      C1419   1.583       .  S
C1303      C1431   1.585       .  S
C1303      C1443   1.578       .  S
C1303      C1455   1.556       .  S
C1304      C1395   1.602       .  S
C1304      C1410   1.564       .  S
C1304      C1446   1.594       .  S
C1304      C1530   1.568       .  S
C1305      C1374   1.586       .  S
C1305      C1386   1.584       .  S
C1305      C1398   1.591       .  S
C1305      C1470   1.553       .  S
C1306      C1359   1.578       .  S
C1306      C1371   1.584       .  S
C1306      C1422   1.602       .  S
C1306      C1494   1.574       .  S
C1307      C1335   1.619       .  S
C1307      C1347   1.574       .  S
C1307      C1434   1.601       .  S
C1307      C1515   1.588       .  S
C1308      C1323   1.583       .  S
C1308      C1338   1.587       .  S
C1308      C1362   1.628       .  S
C1308      C1482   1.576       .  S
C1309      C1311   1.584       .  S
C1309      C1326   1.589       .  S
C1309      C1383   1.582       .  S
C1309      C1542   1.556       .  S
C1310      C1314   1.583       .  S
C1310      C1350   1.583       .  S
C1310      C1407   1.572       .  S
C1310      C1506   1.555       .  S
C1311      C1312   1.423       .  A
C1311      C1316   1.418       .  A
C1312      C1313   1.407       .  A
C1312      H1317   1.083       .  S
C1313      C1314   1.421       .  A
C1313      O1318   1.373       .  S
C1314      C1315   1.406       .  A
C1315      C1316   1.387       .  A
C1315      H1319   1.057       .  S
C1316      O1320   1.360       .  S
O1318      H1322   0.992       .  S
O1320      H1321   0.993       .  S
C1323      C1324   1.420       .  A
C1323      C1328   1.409       .  A
C1324      C1325   1.419       .  A
C1324      H1329   1.079       .  S
C1325      C1326   1.417       .  A
C1325      O1330   1.371       .  S
C1326      C1327   1.418       .  A
C1327      C1328   1.407       .  A
C1327      H1331   1.081       .  S
C1328      O1332   1.367       .  S
O1330      H1334   0.991       .  S
O1332      H1333   0.992       .  S
C1335      C1336   1.420       .  A
C1335      C1340   1.434       .  A
C1336      C1337   1.396       .  A
C1336      H1341   1.073       .  S
C1337      C1338   1.414       .  A
C1337      O1342   1.366       .  S
C1338      C1339   1.421       .  A
C1339      C1340   1.419       .  A
C1339      H1343   1.082       .  S
C1340      O1344   1.362       .  S
O1342      H1346   0.992       .  S
O1344      H1345   0.992       .  S
C1347      C1348   1.424       .  A
C1347      C1352   1.411       .  A
C1348      C1349   1.421       .  A
C1348      H1353   1.083       .  S
C1349      C1350   1.413       .  A
C1349      O1354   1.379       .  S
C1350      C1351   1.415       .  A
C1351      C1352   1.394       .  A
C1351      H1355   1.076       .  S
C1352      O1356   1.368       .  S
O1354      H1358   0.992       .  S
O1356      H1357   0.991       .  S
C1359      C1360   1.403       .  A
C1359      C1364   1.420       .  A
C1360      C1361   1.390       .  A
C1360      H1365   1.076       .  S
C1361      C1362   1.440       .  A
C1361      O1366   1.363       .  S
C1362      C1363   1.429       .  A
C1363      C1364   1.421       .  A
C1363      H1367   1.064       .  S
C1364      O1368   1.372       .  S
O1366      H1370   0.993       .  S
O1368      H1369   0.992       .  S
C1371      C1372   1.432       .  A
C1371      C1376   1.419       .  A
C1372      C1373   1.421       .  A
C1372      H1377   1.083       .  S
C1373      C1374   1.412       .  A
C1373      O1378   1.371       .  S
C1374      C1375   1.406       .  A
C1375      C1376   1.383       .  A
C1375      H1379   1.080       .  S
C1376      O1380   1.353       .  S
O1378      H1382   0.991       .  S
O1380      H1381   0.993       .  S
C1383      C1384   1.403       .  A
C1383      C1388   1.425       .  A
C1384      C1385   1.387       .  A
C1384      H1389   1.074       .  S
C1385      C1386   1.416       .  A
C1385      O1390   1.377       .  S
C1386      C1387   1.419       .  A
C1387      C1388   1.428       .  A
C1387      H1391   1.081       .  S
C1388      O1392   1.370       .  S
O1390      H1394   0.991       .  S
O1392      H1393   0.992       .  S
C1395      C1396   1.409       .  A
C1395      C1400   1.438       .  A
C1396      C1397   1.407       .  A
C1396      H1401   1.065       .  S
C1397      C1398   1.422       .  A
C1397      O1402   1.365       .  S
C1398      C1399   1.412       .  A
C1399      C1400   1.402       .  A
C1399      H1403   1.084       .  S
C1400      O1404   1.376       .  S
O1402      H1406   0.991       .  S
O1404      H1405   0.993       .  S
C1407      C1408   1.419       .  A
C1407      C1412   1.420       .  A
C1408      C1409   1.422       .  A
C1408      H1413   1.078       .  S
C1409      C1410   1.422       .  A
C1409      O1414   1.370       .  S
C1410      C1411   1.405       .  A
C1411      C1412   1.375       .  A
C1411      H1415   1.083       .  S
C1412      O1416   1.368       .  S
O1414      H1418   0.992       .  S
O1416      H1417   0.984       .  S
C1419      C1420   1.405       .  A
C1419      C1424   1.419       .  A
C1420      C1421   1.386       .  A
C1420      H1425   1.074       .  S
C1421      C1422   1.429       .  A
C1421      O1426   1.361       .  S
C1422      C1423   1.425       .  A
C1423      C1424   1.417       .  A
C1423      H1427   1.067       .  S
C1424      O1428   1.373       .  S
O1426      H1430   0.990       .  S
O1428      H1429   0.992       .  S
C1431      C1432   1.397       .  A
C1431      C1436   1.423       .  A
C1432      C1433   1.383       .  A
C1432      H1437   1.077       .  S
C1433      C1434   1.420       .  A
C1433      O1438   1.357       .  S
C1434      C1435   1.430       .  A
C1435      C1436   1.431       .  A
C1435      H1439   1.077       .  S
C1436      O1440   1.369       .  S
O1438      H1442   0.991       .  S
O1440      H1441   0.991       .  S
C1443      C1444   1.405       .  A
C1443      C1448   1.421       .  A
C1444      C1445   1.394       .  A
C1444      H1449   1.077       .  S
C1445      C1446   1.424       .  A
C1445      O1450   1.370       .  S
C1446      C1447   1.418       .  A
C1447      C1448   1.418       .  A
C1447      H1451   1.082       .  S
C1448      O1452   1.370       .  S
O1450      H1454   0.991       .  S
O1452      H1453   0.991       .  S
C1455      C1456   1.415       .  A
C1455      C1460   1.424       .  A
C1456      C1457   1.393       .  A
C1456      H1461   1.078       .  S
C1457      C1458   1.404       .  A
C1457      O1462   1.372       .  S
C1458      C1459   1.401       .  A
C1459      C1460   1.407       .  A
C1459      H1463   1.084       .  S
C1460      O1464   1.372       .  S
O1462      H1466   0.992       .  S
O1464      H1465   0.992       .  S
C1467      C1468   1.400       .  A
C1467      C1472   1.400       .  A
C1468      C1469   1.407       .  A
C1468      H1473   1.084       .  S
C1469      C1470   1.423       .  A
C1469      O1474   1.372       .  S
C1470      C1471   1.417       .  A
C1471      C1472   1.390       .  A
C1471      H1475   1.079       .  S
C1472      O1476   1.373       .  S
O1474      H1478   0.992       .  S
O1476      H1477   0.991       .  S
C1479      C1480   1.399       .  A
C1479      C1484   1.399       .  A
C1480      C1481   1.399       .  A
C1480      H1485   1.084       .  S
C1481      C1482   1.431       .  A
C1481      O1486   1.372       .  S
C1482      C1483   1.419       .  A
C1483      C1484   1.403       .  A
C1483      H1487   1.073       .  S
C1484      O1488   1.372       .  S
O1486      H1490   0.992       .  S
O1488      H1489   0.992       .  S
C1491      C1492   1.391       .  A
C1491      C1496   1.399       .  A
C1492      C1493   1.400       .  A
C1492      H1497   1.085       .  S
C1493      C1494   1.434       .  A
C1493      O1498   1.374       .  S
C1494      C1495   1.418       .  A
C1495      C1496   1.402       .  A
C1495      H1499   1.079       .  S
C1496      O1500   1.371       .  S
O1498      H1502   0.993       .  S
O1500      H1501   0.992       .  S
C1503      C1504   1.398       .  A
C1503      C1508   1.397       .  A
C1504      C1505   1.407       .  A
C1504      H1509   1.082       .  S
C1505      C1506   1.424       .  A
C1505      O1510   1.373       .  S
C1506      C1507   1.419       .  A
C1507      C1508   1.387       .  A
C1507      H1511   1.077       .  S
C1508      O1512   1.374       .  S
O1510      H1514   0.992       .  S
O1512      H1513   0.992       .  S
C1515      C1516   1.417       .  A
C1515      C1520   1.443       .  A
C1516      C1517   1.408       .  A
C1516      H1521   1.081       .  S
C1517      C1518   1.401       .  A
C1517      O1522   1.371       .  S
C1518      C1519   1.386       .  A
C1519      C1520   1.398       .  A
C1519      H1523   1.085       .  S
C1520      O1524   1.374       .  S
O1522      H1526   0.992       .  S
O1524      H1525   0.993       .  S
C1527      C1528   1.393       .  A
C1527      C1532   1.394       .  A
C1528      C1529   1.404       .  A
C1528      H1533   1.084       .  S
C1529      C1530   1.433       .  A
C1529      O1534   1.372       .  S
C1530      C1531   1.418       .  A
C1531      C1532   1.397       .  A
C1531      H1535   1.067       .  S
C1532      O1536   1.373       .  S
O1534      H1538   0.993       .  S
O1536      H1537   0.992       .  S
C1539      C1540   1.391       .  A
C1539      C1544   1.405       .  A
C1540      C1541   1.390       .  A
C1540      H1545   1.085       .  S
C1541      C1542   1.434       .  A
C1541      O1546   1.370       .  S
C1542      C1543   1.416       .  A
C1543      C1544   1.408       .  A
C1543      H1547   1.083       .  S
C1544      O1548   1.370       .  S
O1546      H1550   0.992       .  S
O1548      H1549   0.992       .  S
O1551     Zr1563   2.430   1_655  S
O1551      C1553   1.287       .  A
O1552     Zr1899   2.422   1_556  S
O1552      C1553   1.285       .  A
C1553      C1813   1.466       .  S
O1554      C1556   1.287       .  A
O1555      C1556   1.286       .  A
C1556      C1777   1.471       .  S
O1557     Zr1566   2.439   1_655  S
O1557      C1559   1.289       .  A
O1558     Zr2209   2.426       .  S
O1558      C1559   1.285       .  A
C1559      C1849   1.476       .  S
O1560      C1562   1.288       .  A
O1561     Zr1590   2.423       .  S
O1561      C1562   1.285       .  A
C1562      C1837   1.465       .  S
Zr1563     O1564   2.433       .  S
Zr1563     O2215   2.372   1_455  S
O1564      H1607   0.990   1_455  S
O1565      H1610   0.990       .  S
Zr1566     O1567   2.435       .  S
Zr1566     O1569   2.364   1_455  S
Zr1566     O2214   2.364   1_455  S
O1567      H1611   0.990       .  S
O1569     Zr2209   2.388       .  S
O1570      H1597   0.966       .  S
O1571     Zr1583   2.432       .  S
O1571      C1573   1.287       .  A
O1572     Zr2210   2.437   1_545  S
O1572      C1573   1.288       .  A
C1573      C1768   1.479       .  S
O1574      C1576   1.284       .  A
O1575     Zr1589   2.449   1_545  S
O1575      C1576   1.291       .  A
C1576      C1789   1.479       .  S
O1577     Zr1586   2.436       .  S
O1577      C1579   1.286       .  A
O1578     Zr1900   2.427   1_545  S
O1578      C1579   1.286       .  A
C1579      C1801   1.466       .  S
O1580      C1582   1.289       .  A
O1581      C1582   1.285       .  A
C1582      C1828   1.471       .  S
Zr1583     O1591   2.371       .  S
Zr1583     O2213   2.375   1_545  S
Zr1586     O1587   2.434       .  S
Zr1586     O2216   2.361   1_545  S
Zr1589     O1862   2.422       .  S
Zr1589     O2178   2.426       .  S
Zr1589     O2189   2.388       .  S
Zr1589     O1594   2.387       .  S
Zr1590     O2192   2.437       .  S
Zr1590     O1888   2.427   1_556  S
Zr1590     O2211   2.387       .  S
Zr1590     O1593   2.385       .  S
O1591     Zr2210   2.387   1_545  S
O1591      H1599   0.966       .  S
O1593     Zr2203   2.375       .  S
O1594     Zr2186   2.364   1_655  S
O1594      H1598   0.966       .  S
O1595     Zr2183   2.372   1_655  S
O1595      H1600   0.966       .  S
O1596     Zr2206   2.361       .  S
C1613      C1729   1.583       .  S
C1613      C1741   1.585       .  S
C1613      C1753   1.578       .  S
C1613      C1765   1.556       .  S
C1614      C1705   1.602       .  S
C1614      C1720   1.564       .  S
C1614      C1756   1.594       .  S
C1614      C1840   1.568       .  S
C1615      C1684   1.586       .  S
C1615      C1696   1.584       .  S
C1615      C1708   1.591       .  S
C1615      C1780   1.553       .  S
C1616      C1669   1.578       .  S
C1616      C1681   1.584       .  S
C1616      C1732   1.602       .  S
C1616      C1804   1.574       .  S
C1617      C1645   1.619       .  S
C1617      C1657   1.574       .  S
C1617      C1744   1.601       .  S
C1617      C1825   1.588       .  S
C1618      C1633   1.583       .  S
C1618      C1648   1.587       .  S
C1618      C1672   1.628       .  S
C1618      C1792   1.576       .  S
C1619      C1621   1.584       .  S
C1619      C1636   1.589       .  S
C1619      C1693   1.582       .  S
C1619      C1852   1.556       .  S
C1620      C1624   1.583       .  S
C1620      C1660   1.583       .  S
C1620      C1717   1.572       .  S
C1620      C1816   1.555       .  S
C1621      C1622   1.423       .  A
C1621      C1626   1.418       .  A
C1622      C1623   1.407       .  A
C1622      H1627   1.083       .  S
C1623      C1624   1.421       .  A
C1623      O1628   1.373       .  S
C1624      C1625   1.406       .  A
C1625      C1626   1.387       .  A
C1625      H1629   1.057       .  S
C1626      O1630   1.360       .  S
O1628      H1632   0.992       .  S
O1630      H1631   0.993       .  S
C1633      C1634   1.420       .  A
C1633      C1638   1.409       .  A
C1634      C1635   1.419       .  A
C1634      H1639   1.079       .  S
C1635      C1636   1.417       .  A
C1635      O1640   1.371       .  S
C1636      C1637   1.418       .  A
C1637      C1638   1.407       .  A
C1637      H1641   1.081       .  S
C1638      O1642   1.367       .  S
O1640      H1644   0.991       .  S
O1642      H1643   0.992       .  S
C1645      C1646   1.420       .  A
C1645      C1650   1.434       .  A
C1646      C1647   1.396       .  A
C1646      H1651   1.073       .  S
C1647      C1648   1.414       .  A
C1647      O1652   1.366       .  S
C1648      C1649   1.421       .  A
C1649      C1650   1.419       .  A
C1649      H1653   1.082       .  S
C1650      O1654   1.362       .  S
O1652      H1656   0.992       .  S
O1654      H1655   0.992       .  S
C1657      C1658   1.424       .  A
C1657      C1662   1.411       .  A
C1658      C1659   1.421       .  A
C1658      H1663   1.083       .  S
C1659      C1660   1.413       .  A
C1659      O1664   1.379       .  S
C1660      C1661   1.415       .  A
C1661      C1662   1.394       .  A
C1661      H1665   1.076       .  S
C1662      O1666   1.368       .  S
O1664      H1668   0.992       .  S
O1666      H1667   0.991       .  S
C1669      C1670   1.403       .  A
C1669      C1674   1.420       .  A
C1670      C1671   1.390       .  A
C1670      H1675   1.076       .  S
C1671      C1672   1.440       .  A
C1671      O1676   1.363       .  S
C1672      C1673   1.429       .  A
C1673      C1674   1.421       .  A
C1673      H1677   1.064       .  S
C1674      O1678   1.372       .  S
O1676      H1680   0.993       .  S
O1678      H1679   0.992       .  S
C1681      C1682   1.432       .  A
C1681      C1686   1.419       .  A
C1682      C1683   1.421       .  A
C1682      H1687   1.083       .  S
C1683      C1684   1.412       .  A
C1683      O1688   1.371       .  S
C1684      C1685   1.406       .  A
C1685      C1686   1.383       .  A
C1685      H1689   1.080       .  S
C1686      O1690   1.353       .  S
O1688      H1692   0.991       .  S
O1690      H1691   0.993       .  S
C1693      C1694   1.403       .  A
C1693      C1698   1.425       .  A
C1694      C1695   1.387       .  A
C1694      H1699   1.074       .  S
C1695      C1696   1.416       .  A
C1695      O1700   1.377       .  S
C1696      C1697   1.419       .  A
C1697      C1698   1.428       .  A
C1697      H1701   1.081       .  S
C1698      O1702   1.370       .  S
O1700      H1704   0.991       .  S
O1702      H1703   0.992       .  S
C1705      C1706   1.409       .  A
C1705      C1710   1.438       .  A
C1706      C1707   1.407       .  A
C1706      H1711   1.065       .  S
C1707      C1708   1.422       .  A
C1707      O1712   1.365       .  S
C1708      C1709   1.412       .  A
C1709      C1710   1.402       .  A
C1709      H1713   1.084       .  S
C1710      O1714   1.376       .  S
O1712      H1716   0.991       .  S
O1714      H1715   0.993       .  S
C1717      C1718   1.419       .  A
C1717      C1722   1.420       .  A
C1718      C1719   1.422       .  A
C1718      H1723   1.078       .  S
C1719      C1720   1.422       .  A
C1719      O1724   1.370       .  S
C1720      C1721   1.405       .  A
C1721      C1722   1.375       .  A
C1721      H1725   1.083       .  S
C1722      O1726   1.368       .  S
O1724      H1728   0.992       .  S
O1726      H1727   0.984       .  S
C1729      C1730   1.405       .  A
C1729      C1734   1.419       .  A
C1730      C1731   1.386       .  A
C1730      H1735   1.074       .  S
C1731      C1732   1.429       .  A
C1731      O1736   1.361       .  S
C1732      C1733   1.425       .  A
C1733      C1734   1.417       .  A
C1733      H1737   1.067       .  S
C1734      O1738   1.373       .  S
O1736      H1740   0.990       .  S
O1738      H1739   0.992       .  S
C1741      C1742   1.397       .  A
C1741      C1746   1.423       .  A
C1742      C1743   1.383       .  A
C1742      H1747   1.077       .  S
C1743      C1744   1.420       .  A
C1743      O1748   1.357       .  S
C1744      C1745   1.430       .  A
C1745      C1746   1.431       .  A
C1745      H1749   1.077       .  S
C1746      O1750   1.369       .  S
O1748      H1752   0.991       .  S
O1750      H1751   0.991       .  S
C1753      C1754   1.405       .  A
C1753      C1758   1.421       .  A
C1754      C1755   1.394       .  A
C1754      H1759   1.077       .  S
C1755      C1756   1.424       .  A
C1755      O1760   1.370       .  S
C1756      C1757   1.418       .  A
C1757      C1758   1.418       .  A
C1757      H1761   1.082       .  S
C1758      O1762   1.370       .  S
O1760      H1764   0.991       .  S
O1762      H1763   0.991       .  S
C1765      C1766   1.415       .  A
C1765      C1770   1.424       .  A
C1766      C1767   1.393       .  A
C1766      H1771   1.078       .  S
C1767      C1768   1.404       .  A
C1767      O1772   1.372       .  S
C1768      C1769   1.401       .  A
C1769      C1770   1.407       .  A
C1769      H1773   1.084       .  S
C1770      O1774   1.372       .  S
O1772      H1776   0.992       .  S
O1774      H1775   0.992       .  S
C1777      C1778   1.400       .  A
C1777      C1782   1.400       .  A
C1778      C1779   1.407       .  A
C1778      H1783   1.084       .  S
C1779      C1780   1.423       .  A
C1779      O1784   1.372       .  S
C1780      C1781   1.417       .  A
C1781      C1782   1.390       .  A
C1781      H1785   1.079       .  S
C1782      O1786   1.373       .  S
O1784      H1788   0.992       .  S
O1786      H1787   0.991       .  S
C1789      C1790   1.399       .  A
C1789      C1794   1.399       .  A
C1790      C1791   1.399       .  A
C1790      H1795   1.084       .  S
C1791      C1792   1.431       .  A
C1791      O1796   1.372       .  S
C1792      C1793   1.419       .  A
C1793      C1794   1.403       .  A
C1793      H1797   1.073       .  S
C1794      O1798   1.372       .  S
O1796      H1800   0.992       .  S
O1798      H1799   0.992       .  S
C1801      C1802   1.391       .  A
C1801      C1806   1.399       .  A
C1802      C1803   1.400       .  A
C1802      H1807   1.085       .  S
C1803      C1804   1.434       .  A
C1803      O1808   1.374       .  S
C1804      C1805   1.418       .  A
C1805      C1806   1.402       .  A
C1805      H1809   1.079       .  S
C1806      O1810   1.371       .  S
O1808      H1812   0.993       .  S
O1810      H1811   0.992       .  S
C1813      C1814   1.398       .  A
C1813      C1818   1.397       .  A
C1814      C1815   1.407       .  A
C1814      H1819   1.082       .  S
C1815      C1816   1.424       .  A
C1815      O1820   1.373       .  S
C1816      C1817   1.419       .  A
C1817      C1818   1.387       .  A
C1817      H1821   1.077       .  S
C1818      O1822   1.374       .  S
O1820      H1824   0.992       .  S
O1822      H1823   0.992       .  S
C1825      C1826   1.417       .  A
C1825      C1830   1.443       .  A
C1826      C1827   1.408       .  A
C1826      H1831   1.081       .  S
C1827      C1828   1.401       .  A
C1827      O1832   1.371       .  S
C1828      C1829   1.386       .  A
C1829      C1830   1.398       .  A
C1829      H1833   1.085       .  S
C1830      O1834   1.374       .  S
O1832      H1836   0.992       .  S
O1834      H1835   0.993       .  S
C1837      C1838   1.393       .  A
C1837      C1842   1.394       .  A
C1838      C1839   1.404       .  A
C1838      H1843   1.084       .  S
C1839      C1840   1.433       .  A
C1839      O1844   1.372       .  S
C1840      C1841   1.418       .  A
C1841      C1842   1.397       .  A
C1841      H1845   1.067       .  S
C1842      O1846   1.373       .  S
O1844      H1848   0.993       .  S
O1846      H1847   0.992       .  S
C1849      C1850   1.391       .  A
C1849      C1854   1.405       .  A
C1850      C1851   1.390       .  A
C1850      H1855   1.085       .  S
C1851      C1852   1.434       .  A
C1851      O1856   1.370       .  S
C1852      C1853   1.416       .  A
C1853      C1854   1.408       .  A
C1853      H1857   1.083       .  S
C1854      O1858   1.370       .  S
O1856      H1860   0.992       .  S
O1858      H1859   0.992       .  S
O1861     Zr1873   2.430   1_655  S
O1861      C1863   1.287       .  A
O1862      C1863   1.285       .  A
C1863      C2123   1.466       .  S
O1864      C1866   1.287       .  A
O1865     Zr2210   2.428   1_554  S
O1865      C1866   1.286       .  A
C1866      C2087   1.471       .  S
O1867     Zr1876   2.439   1_655  S
O1867      C1869   1.289       .  A
O1868      C1869   1.285       .  A
C1869      C2159   1.476       .  S
O1870      C1872   1.288       .  A
O1871     Zr1900   2.423       .  S
O1871      C1872   1.285       .  A
C1872      C2147   1.465       .  S
Zr1873     O1874   2.433       .  S
Zr1873     O2189   2.372   1_455  S
O1874      H1917   0.990   1_455  S
O1875      H1920   0.990       .  S
Zr1876     O1877   2.435       .  S
Zr1876     O1879   2.364   1_455  S
O1877      H1921   0.990       .  S
O1879     Zr2183   2.372   1_654  S
O1880     Zr2210   2.389       .  S
O1880      H1907   0.966       .  S
O1881     Zr1893   2.432       .  S
O1881      C1883   1.287       .  A
O1882      C1883   1.288       .  A
C1883      C2078   1.479       .  S
O1884      C1886   1.284       .  A
O1885     Zr1899   2.449       .  S
O1885      C1886   1.291       .  A
C1886      C2099   1.479       .  S
O1887     Zr1896   2.436       .  S
O1887      C1889   1.286       .  A
O1888      C1889   1.286       .  A
C1889      C2111   1.466       .  S
O1890      C1892   1.289       .  A
O1891     Zr2209   2.428       .  S
O1891      C1892   1.285       .  A
C1892      C2138   1.471       .  S
Zr1893     O1901   2.371       .  S
Zr1896     O1897   2.434       .  S
Zr1896     O2211   2.366   1_554  S
Zr1899     O2201   2.428   1_554  S
Zr1899     O2212   2.387       .  S
Zr1899     O1904   2.387       .  S
Zr1899     O2215   2.390   1_554  S
Zr1900     O2175   2.428       .  S
Zr1900     O2190   2.389       .  S
Zr1900     O1903   2.385       .  S
Zr1900     O2216   2.383       .  S
O1901     Zr2206   2.366       .  S
O1901      H1909   0.966       .  S
O1902     Zr2209   2.387       .  S
O1904      H1908   0.966       .  S
O1905     Zr2209   2.390       .  S
O1905      H1910   0.966       .  S
O1906     Zr2210   2.383   1_554  S
C1923      C2039   1.583       .  S
C1923      C2051   1.585       .  S
C1923      C2063   1.578       .  S
C1923      C2075   1.556       .  S
C1924      C2015   1.602       .  S
C1924      C2030   1.564       .  S
C1924      C2066   1.594       .  S
C1924      C2150   1.568       .  S
C1925      C1994   1.586       .  S
C1925      C2006   1.584       .  S
C1925      C2018   1.591       .  S
C1925      C2090   1.553       .  S
C1926      C1979   1.578       .  S
C1926      C1991   1.584       .  S
C1926      C2042   1.602       .  S
C1926      C2114   1.574       .  S
C1927      C1955   1.619       .  S
C1927      C1967   1.574       .  S
C1927      C2054   1.601       .  S
C1927      C2135   1.588       .  S
C1928      C1943   1.583       .  S
C1928      C1958   1.587       .  S
C1928      C1982   1.628       .  S
C1928      C2102   1.576       .  S
C1929      C1931   1.584       .  S
C1929      C1946   1.589       .  S
C1929      C2003   1.582       .  S
C1929      C2162   1.556       .  S
C1930      C1934   1.583       .  S
C1930      C1970   1.583       .  S
C1930      C2027   1.572       .  S
C1930      C2126   1.555       .  S
C1931      C1932   1.423       .  A
C1931      C1936   1.418       .  A
C1932      C1933   1.407       .  A
C1932      H1937   1.083       .  S
C1933      C1934   1.421       .  A
C1933      O1938   1.373       .  S
C1934      C1935   1.406       .  A
C1935      C1936   1.387       .  A
C1935      H1939   1.057       .  S
C1936      O1940   1.360       .  S
O1938      H1942   0.992       .  S
O1940      H1941   0.993       .  S
C1943      C1944   1.420       .  A
C1943      C1948   1.409       .  A
C1944      C1945   1.419       .  A
C1944      H1949   1.079       .  S
C1945      C1946   1.417       .  A
C1945      O1950   1.371       .  S
C1946      C1947   1.418       .  A
C1947      C1948   1.407       .  A
C1947      H1951   1.081       .  S
C1948      O1952   1.367       .  S
O1950      H1954   0.991       .  S
O1952      H1953   0.992       .  S
C1955      C1956   1.420       .  A
C1955      C1960   1.434       .  A
C1956      C1957   1.396       .  A
C1956      H1961   1.073       .  S
C1957      C1958   1.414       .  A
C1957      O1962   1.366       .  S
C1958      C1959   1.421       .  A
C1959      C1960   1.419       .  A
C1959      H1963   1.082       .  S
C1960      O1964   1.362       .  S
O1962      H1966   0.992       .  S
O1964      H1965   0.992       .  S
C1967      C1968   1.424       .  A
C1967      C1972   1.411       .  A
C1968      C1969   1.421       .  A
C1968      H1973   1.083       .  S
C1969      C1970   1.413       .  A
C1969      O1974   1.379       .  S
C1970      C1971   1.415       .  A
C1971      C1972   1.394       .  A
C1971      H1975   1.076       .  S
C1972      O1976   1.368       .  S
O1974      H1978   0.992       .  S
O1976      H1977   0.991       .  S
C1979      C1980   1.403       .  A
C1979      C1984   1.420       .  A
C1980      C1981   1.390       .  A
C1980      H1985   1.076       .  S
C1981      C1982   1.440       .  A
C1981      O1986   1.363       .  S
C1982      C1983   1.429       .  A
C1983      C1984   1.421       .  A
C1983      H1987   1.064       .  S
C1984      O1988   1.372       .  S
O1986      H1990   0.993       .  S
O1988      H1989   0.992       .  S
C1991      C1992   1.432       .  A
C1991      C1996   1.419       .  A
C1992      C1993   1.421       .  A
C1992      H1997   1.083       .  S
C1993      C1994   1.412       .  A
C1993      O1998   1.371       .  S
C1994      C1995   1.406       .  A
C1995      C1996   1.383       .  A
C1995      H1999   1.080       .  S
C1996      O2000   1.353       .  S
O1998      H2002   0.991       .  S
O2000      H2001   0.993       .  S
C2003      C2004   1.403       .  A
C2003      C2008   1.425       .  A
C2004      C2005   1.387       .  A
C2004      H2009   1.074       .  S
C2005      C2006   1.416       .  A
C2005      O2010   1.377       .  S
C2006      C2007   1.419       .  A
C2007      C2008   1.428       .  A
C2007      H2011   1.081       .  S
C2008      O2012   1.370       .  S
O2010      H2014   0.991       .  S
O2012      H2013   0.992       .  S
C2015      C2016   1.409       .  A
C2015      C2020   1.438       .  A
C2016      C2017   1.407       .  A
C2016      H2021   1.065       .  S
C2017      C2018   1.422       .  A
C2017      O2022   1.365       .  S
C2018      C2019   1.412       .  A
C2019      C2020   1.402       .  A
C2019      H2023   1.084       .  S
C2020      O2024   1.376       .  S
O2022      H2026   0.991       .  S
O2024      H2025   0.993       .  S
C2027      C2028   1.419       .  A
C2027      C2032   1.420       .  A
C2028      C2029   1.422       .  A
C2028      H2033   1.078       .  S
C2029      C2030   1.422       .  A
C2029      O2034   1.370       .  S
C2030      C2031   1.405       .  A
C2031      C2032   1.375       .  A
C2031      H2035   1.083       .  S
C2032      O2036   1.368       .  S
O2034      H2038   0.992       .  S
O2036      H2037   0.984       .  S
C2039      C2040   1.405       .  A
C2039      C2044   1.419       .  A
C2040      C2041   1.386       .  A
C2040      H2045   1.074       .  S
C2041      C2042   1.429       .  A
C2041      O2046   1.361       .  S
C2042      C2043   1.425       .  A
C2043      C2044   1.417       .  A
C2043      H2047   1.067       .  S
C2044      O2048   1.373       .  S
O2046      H2050   0.990       .  S
O2048      H2049   0.992       .  S
C2051      C2052   1.397       .  A
C2051      C2056   1.423       .  A
C2052      C2053   1.383       .  A
C2052      H2057   1.077       .  S
C2053      C2054   1.420       .  A
C2053      O2058   1.357       .  S
C2054      C2055   1.430       .  A
C2055      C2056   1.431       .  A
C2055      H2059   1.077       .  S
C2056      O2060   1.369       .  S
O2058      H2062   0.991       .  S
O2060      H2061   0.991       .  S
C2063      C2064   1.405       .  A
C2063      C2068   1.421       .  A
C2064      C2065   1.394       .  A
C2064      H2069   1.077       .  S
C2065      C2066   1.424       .  A
C2065      O2070   1.370       .  S
C2066      C2067   1.418       .  A
C2067      C2068   1.418       .  A
C2067      H2071   1.082       .  S
C2068      O2072   1.370       .  S
O2070      H2074   0.991       .  S
O2072      H2073   0.991       .  S
C2075      C2076   1.415       .  A
C2075      C2080   1.424       .  A
C2076      C2077   1.393       .  A
C2076      H2081   1.078       .  S
C2077      C2078   1.404       .  A
C2077      O2082   1.372       .  S
C2078      C2079   1.401       .  A
C2079      C2080   1.407       .  A
C2079      H2083   1.084       .  S
C2080      O2084   1.372       .  S
O2082      H2086   0.992       .  S
O2084      H2085   0.992       .  S
C2087      C2088   1.400       .  A
C2087      C2092   1.400       .  A
C2088      C2089   1.407       .  A
C2088      H2093   1.084       .  S
C2089      C2090   1.423       .  A
C2089      O2094   1.372       .  S
C2090      C2091   1.417       .  A
C2091      C2092   1.390       .  A
C2091      H2095   1.079       .  S
C2092      O2096   1.373       .  S
O2094      H2098   0.992       .  S
O2096      H2097   0.991       .  S
C2099      C2100   1.399       .  A
C2099      C2104   1.399       .  A
C2100      C2101   1.399       .  A
C2100      H2105   1.084       .  S
C2101      C2102   1.431       .  A
C2101      O2106   1.372       .  S
C2102      C2103   1.419       .  A
C2103      C2104   1.403       .  A
C2103      H2107   1.073       .  S
C2104      O2108   1.372       .  S
O2106      H2110   0.992       .  S
O2108      H2109   0.992       .  S
C2111      C2112   1.391       .  A
C2111      C2116   1.399       .  A
C2112      C2113   1.400       .  A
C2112      H2117   1.085       .  S
C2113      C2114   1.434       .  A
C2113      O2118   1.374       .  S
C2114      C2115   1.418       .  A
C2115      C2116   1.402       .  A
C2115      H2119   1.079       .  S
C2116      O2120   1.371       .  S
O2118      H2122   0.993       .  S
O2120      H2121   0.992       .  S
C2123      C2124   1.398       .  A
C2123      C2128   1.397       .  A
C2124      C2125   1.407       .  A
C2124      H2129   1.082       .  S
C2125      C2126   1.424       .  A
C2125      O2130   1.373       .  S
C2126      C2127   1.419       .  A
C2127      C2128   1.387       .  A
C2127      H2131   1.077       .  S
C2128      O2132   1.374       .  S
O2130      H2134   0.992       .  S
O2132      H2133   0.992       .  S
C2135      C2136   1.417       .  A
C2135      C2140   1.443       .  A
C2136      C2137   1.408       .  A
C2136      H2141   1.081       .  S
C2137      C2138   1.401       .  A
C2137      O2142   1.371       .  S
C2138      C2139   1.386       .  A
C2139      C2140   1.398       .  A
C2139      H2143   1.085       .  S
C2140      O2144   1.374       .  S
O2142      H2146   0.992       .  S
O2144      H2145   0.993       .  S
C2147      C2148   1.393       .  A
C2147      C2152   1.394       .  A
C2148      C2149   1.404       .  A
C2148      H2153   1.084       .  S
C2149      C2150   1.433       .  A
C2149      O2154   1.372       .  S
C2150      C2151   1.418       .  A
C2151      C2152   1.397       .  A
C2151      H2155   1.067       .  S
C2152      O2156   1.373       .  S
O2154      H2158   0.993       .  S
O2156      H2157   0.992       .  S
C2159      C2160   1.391       .  A
C2159      C2164   1.405       .  A
C2160      C2161   1.390       .  A
C2160      H2165   1.085       .  S
C2161      C2162   1.434       .  A
C2161      O2166   1.370       .  S
C2162      C2163   1.416       .  A
C2163      C2164   1.408       .  A
C2163      H2167   1.083       .  S
C2164      O2168   1.370       .  S
O2166      H2170   0.992       .  S
O2168      H2169   0.992       .  S
O2171     Zr2183   2.430   1_655  S
O2171      C2173   1.287       .  A
O2172      C2173   1.285       .  A
C2173      C2433   1.466       .  S
O2174      C2176   1.287       .  A
O2175      C2176   1.286       .  A
C2176      C2397   1.471       .  S
O2177     Zr2186   2.439   1_655  S
O2177      C2179   1.289       .  A
O2178      C2179   1.285       .  A
C2179      C2469   1.476       .  S
O2180      C2182   1.288       .  A
O2181     Zr2210   2.423       .  S
O2181      C2182   1.285       .  A
C2182      C2457   1.465       .  S
Zr2183     O2184   2.433       .  S
O2184      H2227   0.990   1_455  S
O2185      H2230   0.990       .  S
Zr2186     O2187   2.435       .  S
Zr2186     O2189   2.364   1_455  S
O2187      H2231   0.990       .  S
O2190      H2217   0.966       .  S
O2191     Zr2203   2.432       .  S
O2191      C2193   1.287       .  A
O2192      C2193   1.288       .  A
C2193      C2388   1.479       .  S
O2194      C2196   1.284       .  A
O2195     Zr2209   2.449       .  S
O2195      C2196   1.291       .  A
C2196      C2409   1.479       .  S
O2197     Zr2206   2.436       .  S
O2197      C2199   1.286       .  A
O2198      C2199   1.286       .  A
C2199      C2421   1.466       .  S
O2200      C2202   1.289       .  A
O2201      C2202   1.285       .  A
C2202      C2448   1.471       .  S
Zr2203     O2211   2.371       .  S
Zr2206     O2207   2.434       .  S
Zr2209     O2214   2.387       .  S
Zr2210     O2213   2.385       .  S
O2211      H2219   0.966       .  S
O2214      H2218   0.966       .  S
O2215      H2220   0.966       .  S
C2233      C2349   1.583       .  S
C2233      C2361   1.585       .  S
C2233      C2373   1.578       .  S
C2233      C2385   1.556       .  S
C2234      C2325   1.602       .  S
C2234      C2340   1.564       .  S
C2234      C2376   1.594       .  S
C2234      C2460   1.568       .  S
C2235      C2304   1.586       .  S
C2235      C2316   1.584       .  S
C2235      C2328   1.591       .  S
C2235      C2400   1.553       .  S
C2236      C2289   1.578       .  S
C2236      C2301   1.584       .  S
C2236      C2352   1.602       .  S
C2236      C2424   1.574       .  S
C2237      C2265   1.619       .  S
C2237      C2277   1.574       .  S
C2237      C2364   1.601       .  S
C2237      C2445   1.588       .  S
C2238      C2253   1.583       .  S
C2238      C2268   1.587       .  S
C2238      C2292   1.628       .  S
C2238      C2412   1.576       .  S
C2239      C2241   1.584       .  S
C2239      C2256   1.589       .  S
C2239      C2313   1.582       .  S
C2239      C2472   1.556       .  S
C2240      C2244   1.583       .  S
C2240      C2280   1.583       .  S
C2240      C2337   1.572       .  S
C2240      C2436   1.555       .  S
C2241      C2242   1.423       .  A
C2241      C2246   1.418       .  A
C2242      C2243   1.407       .  A
C2242      H2247   1.083       .  S
C2243      C2244   1.421       .  A
C2243      O2248   1.373       .  S
C2244      C2245   1.406       .  A
C2245      C2246   1.387       .  A
C2245      H2249   1.057       .  S
C2246      O2250   1.360       .  S
O2248      H2252   0.992       .  S
O2250      H2251   0.993       .  S
C2253      C2254   1.420       .  A
C2253      C2258   1.409       .  A
C2254      C2255   1.419       .  A
C2254      H2259   1.079       .  S
C2255      C2256   1.417       .  A
C2255      O2260   1.371       .  S
C2256      C2257   1.418       .  A
C2257      C2258   1.407       .  A
C2257      H2261   1.081       .  S
C2258      O2262   1.367       .  S
O2260      H2264   0.991       .  S
O2262      H2263   0.992       .  S
C2265      C2266   1.420       .  A
C2265      C2270   1.434       .  A
C2266      C2267   1.396       .  A
C2266      H2271   1.073       .  S
C2267      C2268   1.414       .  A
C2267      O2272   1.366       .  S
C2268      C2269   1.421       .  A
C2269      C2270   1.419       .  A
C2269      H2273   1.082       .  S
C2270      O2274   1.362       .  S
O2272      H2276   0.992       .  S
O2274      H2275   0.992       .  S
C2277      C2278   1.424       .  A
C2277      C2282   1.411       .  A
C2278      C2279   1.421       .  A
C2278      H2283   1.083       .  S
C2279      C2280   1.413       .  A
C2279      O2284   1.379       .  S
C2280      C2281   1.415       .  A
C2281      C2282   1.394       .  A
C2281      H2285   1.076       .  S
C2282      O2286   1.368       .  S
O2284      H2288   0.992       .  S
O2286      H2287   0.991       .  S
C2289      C2290   1.403       .  A
C2289      C2294   1.420       .  A
C2290      C2291   1.390       .  A
C2290      H2295   1.076       .  S
C2291      C2292   1.440       .  A
C2291      O2296   1.363       .  S
C2292      C2293   1.429       .  A
C2293      C2294   1.421       .  A
C2293      H2297   1.064       .  S
C2294      O2298   1.372       .  S
O2296      H2300   0.993       .  S
O2298      H2299   0.992       .  S
C2301      C2302   1.432       .  A
C2301      C2306   1.419       .  A
C2302      C2303   1.421       .  A
C2302      H2307   1.083       .  S
C2303      C2304   1.412       .  A
C2303      O2308   1.371       .  S
C2304      C2305   1.406       .  A
C2305      C2306   1.383       .  A
C2305      H2309   1.080       .  S
C2306      O2310   1.353       .  S
O2308      H2312   0.991       .  S
O2310      H2311   0.993       .  S
C2313      C2314   1.403       .  A
C2313      C2318   1.425       .  A
C2314      C2315   1.387       .  A
C2314      H2319   1.074       .  S
C2315      C2316   1.416       .  A
C2315      O2320   1.377       .  S
C2316      C2317   1.419       .  A
C2317      C2318   1.428       .  A
C2317      H2321   1.081       .  S
C2318      O2322   1.370       .  S
O2320      H2324   0.991       .  S
O2322      H2323   0.992       .  S
C2325      C2326   1.409       .  A
C2325      C2330   1.438       .  A
C2326      C2327   1.407       .  A
C2326      H2331   1.065       .  S
C2327      C2328   1.422       .  A
C2327      O2332   1.365       .  S
C2328      C2329   1.412       .  A
C2329      C2330   1.402       .  A
C2329      H2333   1.084       .  S
C2330      O2334   1.376       .  S
O2332      H2336   0.991       .  S
O2334      H2335   0.993       .  S
C2337      C2338   1.419       .  A
C2337      C2342   1.420       .  A
C2338      C2339   1.422       .  A
C2338      H2343   1.078       .  S
C2339      C2340   1.422       .  A
C2339      O2344   1.370       .  S
C2340      C2341   1.405       .  A
C2341      C2342   1.375       .  A
C2341      H2345   1.083       .  S
C2342      O2346   1.368       .  S
O2344      H2348   0.992       .  S
O2346      H2347   0.984       .  S
C2349      C2350   1.405       .  A
C2349      C2354   1.419       .  A
C2350      C2351   1.386       .  A
C2350      H2355   1.074       .  S
C2351      C2352   1.429       .  A
C2351      O2356   1.361       .  S
C2352      C2353   1.425       .  A
C2353      C2354   1.417       .  A
C2353      H2357   1.067       .  S
C2354      O2358   1.373       .  S
O2356      H2360   0.990       .  S
O2358      H2359   0.992       .  S
C2361      C2362   1.397       .  A
C2361      C2366   1.423       .  A
C2362      C2363   1.383       .  A
C2362      H2367   1.077       .  S
C2363      C2364   1.420       .  A
C2363      O2368   1.357       .  S
C2364      C2365   1.430       .  A
C2365      C2366   1.431       .  A
C2365      H2369   1.077       .  S
C2366      O2370   1.369       .  S
O2368      H2372   0.991       .  S
O2370      H2371   0.991       .  S
C2373      C2374   1.405       .  A
C2373      C2378   1.421       .  A
C2374      C2375   1.394       .  A
C2374      H2379   1.077       .  S
C2375      C2376   1.424       .  A
C2375      O2380   1.370       .  S
C2376      C2377   1.418       .  A
C2377      C2378   1.418       .  A
C2377      H2381   1.082       .  S
C2378      O2382   1.370       .  S
O2380      H2384   0.991       .  S
O2382      H2383   0.991       .  S
C2385      C2386   1.415       .  A
C2385      C2390   1.424       .  A
C2386      C2387   1.393       .  A
C2386      H2391   1.078       .  S
C2387      C2388   1.404       .  A
C2387      O2392   1.372       .  S
C2388      C2389   1.401       .  A
C2389      C2390   1.407       .  A
C2389      H2393   1.084       .  S
C2390      O2394   1.372       .  S
O2392      H2396   0.992       .  S
O2394      H2395   0.992       .  S
C2397      C2398   1.400       .  A
C2397      C2402   1.400       .  A
C2398      C2399   1.407       .  A
C2398      H2403   1.084       .  S
C2399      C2400   1.423       .  A
C2399      O2404   1.372       .  S
C2400      C2401   1.417       .  A
C2401      C2402   1.390       .  A
C2401      H2405   1.079       .  S
C2402      O2406   1.373       .  S
O2404      H2408   0.992       .  S
O2406      H2407   0.991       .  S
C2409      C2410   1.399       .  A
C2409      C2414   1.399       .  A
C2410      C2411   1.399       .  A
C2410      H2415   1.084       .  S
C2411      C2412   1.431       .  A
C2411      O2416   1.372       .  S
C2412      C2413   1.419       .  A
C2413      C2414   1.403       .  A
C2413      H2417   1.073       .  S
C2414      O2418   1.372       .  S
O2416      H2420   0.992       .  S
O2418      H2419   0.992       .  S
C2421      C2422   1.391       .  A
C2421      C2426   1.399       .  A
C2422      C2423   1.400       .  A
C2422      H2427   1.085       .  S
C2423      C2424   1.434       .  A
C2423      O2428   1.374       .  S
C2424      C2425   1.418       .  A
C2425      C2426   1.402       .  A
C2425      H2429   1.079       .  S
C2426      O2430   1.371       .  S
O2428      H2432   0.993       .  S
O2430      H2431   0.992       .  S
C2433      C2434   1.398       .  A
C2433      C2438   1.397       .  A
C2434      C2435   1.407       .  A
C2434      H2439   1.082       .  S
C2435      C2436   1.424       .  A
C2435      O2440   1.373       .  S
C2436      C2437   1.419       .  A
C2437      C2438   1.387       .  A
C2437      H2441   1.077       .  S
C2438      O2442   1.374       .  S
O2440      H2444   0.992       .  S
O2442      H2443   0.992       .  S
C2445      C2446   1.417       .  A
C2445      C2450   1.443       .  A
C2446      C2447   1.408       .  A
C2446      H2451   1.081       .  S
C2447      C2448   1.401       .  A
C2447      O2452   1.371       .  S
C2448      C2449   1.386       .  A
C2449      C2450   1.398       .  A
C2449      H2453   1.085       .  S
C2450      O2454   1.374       .  S
O2452      H2456   0.992       .  S
O2454      H2455   0.993       .  S
C2457      C2458   1.393       .  A
C2457      C2462   1.394       .  A
C2458      C2459   1.404       .  A
C2458      H2463   1.084       .  S
C2459      C2460   1.433       .  A
C2459      O2464   1.372       .  S
C2460      C2461   1.418       .  A
C2461      C2462   1.397       .  A
C2461      H2465   1.067       .  S
C2462      O2466   1.373       .  S
O2464      H2468   0.993       .  S
O2466      H2467   0.992       .  S
C2469      C2470   1.391       .  A
C2469      C2474   1.405       .  A
C2470      C2471   1.390       .  A
C2470      H2475   1.085       .  S
C2471      C2472   1.434       .  A
C2471      O2476   1.370       .  S
C2472      C2473   1.416       .  A
C2473      C2474   1.408       .  A
C2473      H2477   1.083       .  S
C2474      O2478   1.370       .  S
O2476      H2480   0.992       .  S
O2478      H2479   0.992       .  S
