geometry optimzed in LAMMPS
_audit_creation_date              2020-12-01 
_audit_creation_method            'lammps2cif' 
_symmetry_space_group_name_H-M    'P1' 
_symmetry_Int_Tables_number       1 
_symmetry_cell_setting            triclinic 
loop_ 
_symmetry_equiv_pos_as_xyz 
  x,y,z 
_cell_length_a                    36.63317924 
_cell_length_b                    36.66345751057511 
_cell_length_c                    35.61694310042901 
_cell_angle_alpha                 89.83116786079248 
_cell_angle_beta                  89.71556420406553 
_cell_angle_gamma                 124.15043076278208 
loop_ 
_atom_site_label 
_atom_site_type_symbol 
_atom_site_fract_x 
_atom_site_fract_y 
_atom_site_fract_z 
_atom_site_charge 
C1          C  0.37085339  0.13456532  0.90640892     0.88700
C2          C  0.32158438  0.11012429  0.91550676    -0.51600
C3          C  0.30221839  0.12933193  0.90016148     0.11600
C4          C  0.33379846  0.17104689  0.87661014     0.22500
C5          C  0.37412534  0.13747149  0.86364809    -0.52300
C6          C  0.35476565  0.15648934  0.84766248     0.11700
C7          C  0.39101474  0.18190614  0.91937285    -0.51800
C8          C  0.37161626  0.20098427  0.90384288     0.12300
H9          H  0.30399235  0.08127005  0.93372130     0.16800
H10         H  0.31807472  0.18685278  0.86440187     0.02500
H11         H  0.39062569  0.12566835  0.84733969     0.17100
H12         H  0.41775867  0.19862923  0.93944119     0.16900
C13         C  0.34470787  0.14754836  0.68209775     0.88700
C14         C  0.36729422  0.19624838  0.67194476    -0.51600
C15         C  0.34963080  0.21574763  0.68994404     0.11600
C16         C  0.31120763  0.18471258  0.71699078     0.22500
C17         C  0.34738125  0.14609630  0.72464811    -0.52300
C18         C  0.33038097  0.16596725  0.74355080     0.11700
C19         C  0.29587309  0.12611915  0.67381957    -0.51800
C20         C  0.27822769  0.14556791  0.69192800     0.12300
H21         H  0.39392055  0.21341735  0.65143972     0.16800
H22         H  0.29679845  0.20063154  0.73157724     0.02500
H23         H  0.36061795  0.12938376  0.73817485     0.17100
H24         H  0.27720973  0.09882078  0.65452336     0.16900
C25         C  0.15236595  0.35079452  0.18357663     0.88700
C26         C  0.12970911  0.30201509  0.17426885    -0.51600
C27         C  0.14744403  0.28267324  0.19235011     0.11600
C28         C  0.18601056  0.31390078  0.21857831     0.22500
C29         C  0.14988956  0.35260496  0.22615471    -0.52300
C30         C  0.16709330  0.33294788  0.24506718     0.11700
C31         C  0.20115160  0.37211431  0.17457135    -0.51800
C32         C  0.21883238  0.35281152  0.19277002     0.12300
H33         H  0.10301082  0.28468154  0.15422254     0.16800
H34         H  0.20050459  0.29811538  0.23320349     0.02500
H35         H  0.13680639  0.36948902  0.23964282     0.17100
H36         H  0.21979372  0.39931443  0.15482328     0.16900
C37         C  0.13137849  0.36782915  0.40839927     0.88700
C38         C  0.18084588  0.39231013  0.41584704    -0.51600
C39         C  0.19966225  0.37273369  0.40008641     0.11600
C40         C  0.16737674  0.33066923  0.37779757     0.22500
C41         C  0.12687489  0.36421933  0.36579275    -0.52300
C42         C  0.14564222  0.34479230  0.34941651     0.11700
C43         C  0.11145639  0.32068943  0.42230275    -0.51800
C44         C  0.13031110  0.30127125  0.40630623     0.12300
H45         H  0.19897830  0.42142264  0.43336225     0.16800
H46         H  0.18265998  0.31455119  0.36526304     0.02500
H47         H  0.10995860  0.37577534  0.34989918     0.17100
H48         H  0.08515952  0.30429041  0.44316619     0.16900
Zn49       Zn  0.48178342  0.01964072  0.06870450     1.49700
Zn50       Zn  0.07252627  0.02571800  0.06388577     1.49400
Zn51       Zn  0.47759903  0.43040069  0.06442143     1.49100
Zn52       Zn  0.00930941  0.99423909  0.99207867     1.49500
O53         O  0.01086623  0.99287105  0.04736568    -1.82000
O54         O  0.02436649  0.07206411  0.10140738    -0.72600
O55         O  0.08431731  0.48543077  0.09168143    -0.72400
O56         O  0.42741935  0.41512976  0.09969000    -0.71900
O57         O  0.08725454  0.07613939  0.09822258    -0.72600
O58         O  0.42935816  0.47685451  0.10119840    -0.72200
O59         O  0.01994296  0.42002086  0.09176817    -0.72800
O60         O  0.47442785  0.43192768  0.97018397    -0.72200
O61         O  0.11451195  0.05041500  0.01955331    -0.72900
O62         O  0.45217317  0.38860822  0.02084062    -0.72300
O63         O  0.07088865  0.02687343  0.96958479    -0.72800
O64         O  0.47945505  0.02392380  0.97446186    -0.72700
O65         O  0.46096986  0.04169061  0.02767461    -0.72500
C66         C  0.06457843  0.09019830  0.11031350     0.79300
C67         C  0.06059499  0.44464083  0.10007529     0.79800
C68         C  0.41225703  0.43701013  0.11111398     0.78800
C69         C  0.45403338  0.39388171  0.98541763     0.79100
C70         C  0.10906378  0.04748617  0.98416857     0.80300
C71         C  0.46237747  0.04112898  0.99199403     0.79300
Zn72       Zn  0.46213844  0.03728528  0.52278172     1.49700
Zn73       Zn  0.05060421  0.03949130  0.53246213     1.49400
Zn74       Zn  0.48611565  0.50951290  0.60054685     1.49100
Zn75       Zn  0.45696453  0.44759763  0.52795940     1.49500
O76         O  0.48922679  0.50894000  0.54525664    -1.82000
O77         O  0.00501429  0.08801844  0.49433981    -0.72600
O78         O  0.09113986  0.06320814  0.57714448    -0.72400
O79         O  0.45509420  0.03845486  0.61687628    -0.71900
O80         O  0.06738144  0.09140177  0.49898566    -0.72600
O81         O  0.43932048  0.05762439  0.56302191    -0.72200
O82         O  0.04629316  0.04274461  0.62670128    -0.72800
O83         O  0.43190548  0.40484128  0.57185775    -0.72200
O84         O  0.06259239  0.49999878  0.50365532    -0.72900
O85         O  0.45248850  0.44754442  0.62231961    -0.72300
O86         O  0.99760773  0.43523506  0.50261831    -0.72800
O87         O  0.40636861  0.43279777  0.49374583    -0.72700
O88         O  0.41059926  0.49566348  0.49043872    -0.72500
C89         C  0.04564142  0.10629317  0.48659906     0.79300
C90         C  0.08482741  0.06211472  0.61240754     0.79800
C91         C  0.43864985  0.05580580  0.59866116     0.78800
C92         C  0.43305370  0.40965457  0.60730443     0.79100
C93         C  0.03841592  0.45969665  0.49419512     0.79500
C94         C  0.39238856  0.45548290  0.48160431     0.79300
C95         C  0.24438971  0.38756032  0.40870141    -0.16300
C96         C  0.28060031  0.40148438  0.42089132     0.07700
C97         C  0.32117896  0.41909774  0.43945508     0.09600
C98         C  0.35435836  0.43509617  0.45777147    -0.17200
C99         C  0.11105610  0.38870516  0.42557683    -0.16300
C100        C  0.09425439  0.40557272  0.44002613     0.07700
C101        C  0.07460738  0.42490858  0.45774460     0.09600
C102        C  0.05796592  0.44102546  0.47382423    -0.17200
C103        C  0.11697458  0.25747993  0.41695342    -0.16300
C104        C  0.10330969  0.22126467  0.42920169     0.07700
C105        C  0.08495622  0.17986092  0.44675856     0.09600
C106        C  0.06771622  0.14559152  0.46394851    -0.17200
C107        C  0.16895443  0.33210595  0.28692717    -0.14300
C108        C  0.14208701  0.33777484  0.30832078    -0.29400
H109        H  0.19354767  0.32855320  0.29981112     0.14800
H110        H  0.11672125  0.33972755  0.29497996     0.15300
C111        C  0.08508861  0.12823765  0.13419717    -0.16300
C112        C  0.10144884  0.16141862  0.15259498     0.07700
C113        C  0.11944277  0.20199960  0.17132201     0.09600
C114        C  0.13335273  0.23815737  0.18366552    -0.17200
C115        C  0.37415215  0.41593875  0.13539628    -0.16300
C116        C  0.34079131  0.39890651  0.15402891     0.07700
C117        C  0.29984873  0.38022283  0.17276574     0.09600
C118        C  0.26336513  0.36616119  0.18480085    -0.17200
C119        C  0.08058571  0.42553652  0.11880151    -0.16300
C120        C  0.09749289  0.40891683  0.13335045     0.07700
C121        C  0.11705185  0.38895337  0.14980893     0.09600
C122        C  0.13332608  0.37168406  0.16432475    -0.17200
C123        C  0.36388146  0.12661009  0.66309386    -0.16300
C124        C  0.38073714  0.10958795  0.64916512     0.07700
C125        C  0.40111576  0.09011969  0.63330403     0.09600
C126        C  0.41852885  0.07403836  0.61864837    -0.17200
C127        C  0.41232962  0.37099269  0.63098233    -0.16300
C128        C  0.39583728  0.33739132  0.64923430     0.07700
C129        C  0.37774043  0.29650598  0.66799218     0.09600
C130        C  0.36377405  0.26027274  0.68062194    -0.17200
C131        C  0.23370872  0.13234816  0.68427082    -0.16300
C132        C  0.19721340  0.11845400  0.67270018     0.07700
C133        C  0.15608737  0.09993340  0.65472051     0.09600
C134        C  0.12261151  0.08300207  0.63663270    -0.17200
C135        C  0.32948796  0.16765926  0.78549588    -0.14300
C136        C  0.35701367  0.16259483  0.80635224    -0.29400
H137        H  0.30517819  0.17144654  0.79894012     0.14800
H138        H  0.38212710  0.16049298  0.79238051     0.15300
C139        C  0.39174362  0.11400100  0.92315377    -0.16300
C140        C  0.40866849  0.09709070  0.93730182     0.07700
C141        C  0.42801931  0.07732195  0.95482870     0.09600
C142        C  0.44401186  0.06061029  0.97100994    -0.17200
C143        C  0.43305165  0.35546126  0.96209562    -0.16300
C144        C  0.41634760  0.32170448  0.94454723     0.07700
C145        C  0.39828353  0.28070256  0.92668561     0.09600
C146        C  0.38475630  0.24469403  0.91430544    -0.17200
C147        C  0.25757675  0.11437825  0.90996572    -0.16300
C148        C  0.22141967  0.10052605  0.92274904     0.07700
C149        C  0.18072818  0.08311137  0.94164132     0.09600
C150        C  0.14734352  0.06737059  0.96009748    -0.17200
C151        C  0.37057780  0.63433187  0.90639081     0.88700
C152        C  0.32131516  0.60999068  0.91546525    -0.51600
C153        C  0.30206222  0.62934179  0.90018402     0.11600
C154        C  0.33373931  0.67108243  0.87669046     0.22500
C155        C  0.37388963  0.63733985  0.86363092    -0.52300
C156        C  0.35462565  0.65648071  0.84768935     0.11700
C157        C  0.39084646  0.68165892  0.91944779    -0.51800
C158        C  0.37156680  0.70088412  0.90397463     0.12300
H159        H  0.30365020  0.58110565  0.93364091     0.16800
H160        H  0.31810649  0.68699752  0.86452032     0.02500
H161        H  0.39032274  0.62548726  0.84728975     0.17100
H162        H  0.41755766  0.69825743  0.93955839     0.16900
C163        C  0.34491888  0.64786158  0.68209432     0.88700
C164        C  0.36766659  0.69663219  0.67212668    -0.51600
C165        C  0.34995411  0.71610928  0.69008640     0.11600
C166        C  0.31132257  0.68497448  0.71693397     0.22500
C167        C  0.34728187  0.64615625  0.72465539    -0.52300
C168        C  0.33026309  0.66601762  0.74353924     0.11700
C169        C  0.29615770  0.62658443  0.67357485    -0.51800
C170        C  0.27845082  0.64599532  0.69165649     0.12300
H171        H  0.39442378  0.71386368  0.65174599     0.16800
H172        H  0.29688177  0.70087517  0.73149882     0.02500
H173        H  0.36038271  0.62933264  0.73820593     0.17100
H174        H  0.27758423  0.59939435  0.65416462     0.16900
C175        C  0.15276019  0.85117665  0.18361999     0.88700
C176        C  0.12992859  0.80240201  0.17419367    -0.51600
C177        C  0.14744956  0.78283207  0.19224107     0.11600
C178        C  0.18598878  0.81385563  0.21858028     0.22500
C179        C  0.15019296  0.85287468  0.22619638    -0.52300
C180        C  0.16717108  0.83299402  0.24509091     0.11700
C181        C  0.20152901  0.87231994  0.17469733    -0.51800
C182        C  0.21898856  0.85278990  0.19287465     0.12300
H183        H  0.10328395  0.78524198  0.15407945     0.16800
H184        H  0.20031434  0.79789618  0.23318814     0.02500
H185        H  0.13723230  0.86986216  0.23970317     0.17100
H186        H  0.22031885  0.89956717  0.15501693     0.16900
C187        C  0.13130632  0.86767103  0.40849234     0.88700
C188        C  0.18081886  0.89235163  0.41580765    -0.51600
C189        C  0.19972887  0.87290352  0.39997629     0.11600
C190        C  0.16749658  0.83076391  0.37776652     0.22500
C191        C  0.12665997  0.86398111  0.36588803    -0.52300
C192        C  0.14555266  0.84470267  0.34944762     0.11700
C193        C  0.11162425  0.82059104  0.42242538    -0.51800
C194        C  0.13057034  0.80130334  0.40635469     0.12300
H195        H  0.19891855  0.92149859  0.43328733     0.16800
H196        H  0.18287056  0.81475355  0.36519490     0.02500
H197        H  0.10961186  0.87542219  0.35004478     0.17100
H198        H  0.08538391  0.80411805  0.44333144     0.16900
Zn199      Zn  0.48183657  0.51956142  0.06855606     1.49700
Zn200      Zn  0.07223268  0.52548907  0.06397781     1.49400
Zn201      Zn  0.47771227  0.93047844  0.06473544     1.49100
Zn202      Zn  0.00914158  0.49418720  0.99206357     1.49500
O203        O  0.01061602  0.49262309  0.04734536    -1.82000
O204        O  0.02399043  0.57170259  0.10161425    -0.72600
O205        O  0.08470467  0.98573570  0.09157949    -0.72400
O206        O  0.42758718  0.91527356  0.09995426    -0.71900
O207        O  0.08696211  0.57597605  0.09828965    -0.72600
O208        O  0.42928645  0.97688507  0.10128756    -0.72200
O209        O  0.02024369  0.92041724  0.09211449    -0.72800
O210        O  0.47433720  0.93180859  0.97051660    -0.72200
O211        O  0.11428518  0.55022374  0.01968727    -0.72900
O212        O  0.45228346  0.88858407  0.02121751    -0.72300
O213        O  0.07076677  0.52682986  0.96965259    -0.72800
O214        O  0.47945547  0.52394905  0.97430394    -0.72700
O215        O  0.46090676  0.54154921  0.02758614    -0.72500
C216        C  0.06424451  0.58997081  0.11042667     0.79300
C217        C  0.06096273  0.94501557  0.10020061     0.79800
C218        C  0.41231281  0.93708356  0.11127898     0.78800
C219        C  0.45404700  0.89378711  0.98579035     0.79100
C220        C  0.10891190  0.54739209  0.98429324     0.80300
C221        C  0.46228189  0.54102246  0.99190106     0.79300
Zn222      Zn  0.46223277  0.53730471  0.52315847     1.49700
Zn223      Zn  0.05051363  0.53954633  0.53230413     1.49400
Zn224      Zn  0.48610907  0.00974065  0.60030350     1.49100
Zn225      Zn  0.45700915  0.94770898  0.52778149     1.49500
O226        O  0.48921126  0.00906414  0.54503437    -1.82000
O227        O  0.00477425  0.58787162  0.49401128    -0.72600
O228        O  0.09106494  0.56330062  0.57697503    -0.72400
O229        O  0.45536103  0.53843976  0.61733692    -0.71900
O230        O  0.06719623  0.59138570  0.49882799    -0.72600
O231        O  0.43978256  0.55790623  0.56354948    -0.72200
O232        O  0.04624879  0.54264744  0.62656870    -0.72800
O233        O  0.43208442  0.90499737  0.57173303    -0.72200
O234        O  0.06260880  0.99984264  0.50387224    -0.72900
O235        O  0.45265198  0.94780035  0.62213138    -0.72300
O236        O  0.99758003  0.93511090  0.50290511    -0.72800
O237        O  0.40637867  0.93276755  0.49351880    -0.72700
O238        O  0.41075346  0.99568611  0.48988907    -0.72500
C239        C  0.04542207  0.60618644  0.48633275     0.79300
C240        C  0.08478492  0.56211844  0.61224951     0.79800
C241        C  0.43910070  0.55601655  0.59918954     0.78800
C242        C  0.43328913  0.90988225  0.60717586     0.79100
C243        C  0.03839394  0.95951672  0.49448028     0.79500
C244        C  0.39250322  0.95547173  0.48118247     0.79300
C245        C  0.24451907  0.88788438  0.40845850    -0.16300
C246        C  0.28076146  0.90176941  0.42053260     0.07700
C247        C  0.32135330  0.91921728  0.43900480     0.09600
C248        C  0.35452430  0.93508951  0.45730390    -0.17200
C249        C  0.11089176  0.88841180  0.42576501    -0.16300
C250        C  0.09409093  0.90523136  0.44031286     0.07700
C251        C  0.07449511  0.92458373  0.45810177     0.09600
C252        C  0.05790157  0.94075530  0.47417503    -0.17200
C253        C  0.11731435  0.75751603  0.41689705    -0.16300
C254        C  0.10353633  0.72123886  0.42904390     0.07700
C255        C  0.08493178  0.67975184  0.44650017     0.09600
C256        C  0.06751719  0.64545051  0.46365363    -0.17200
C257        C  0.16892250  0.83204731  0.28695578    -0.14300
C258        C  0.14209331  0.83780412  0.30832997    -0.29400
H259        H  0.19340177  0.82833708  0.29985428     0.14800
H260        H  0.11682845  0.83989418  0.29496145     0.15300
C261        C  0.08476550  0.62813129  0.13419232    -0.16300
C262        C  0.10115297  0.66143328  0.15244262     0.07700
C263        C  0.11921286  0.70211080  0.17105245     0.09600
C264        C  0.13320776  0.73829088  0.18341201    -0.17200
C265        C  0.37422345  0.91595378  0.13554898    -0.16300
C266        C  0.34087046  0.89880029  0.15418551     0.07700
C267        C  0.29993579  0.88000784  0.17293084     0.09600
C268        C  0.26346240  0.86596019  0.18496018    -0.17200
C269        C  0.08101248  0.92597377  0.11892798    -0.16300
C270        C  0.09801369  0.90944678  0.13346917     0.07700
C271        C  0.11766520  0.88956949  0.14990682     0.09600
C272        C  0.13392255  0.87227364  0.16439740    -0.17200
C273        C  0.36418441  0.62695496  0.66316068    -0.16300
C274        C  0.38116731  0.60996021  0.64941180     0.07700
C275        C  0.40167856  0.59049556  0.63378503     0.09600
C276        C  0.41911493  0.57437161  0.61923286    -0.17200
C277        C  0.41271176  0.87127798  0.63092733    -0.16300
C278        C  0.39630614  0.83774564  0.64927255     0.07700
C279        C  0.37822110  0.79691570  0.66813888     0.09600
C280        C  0.36419607  0.76068275  0.68081326    -0.17200
C281        C  0.23394612  0.63280186  0.68387782    -0.16300
C282        C  0.19742235  0.61882784  0.67230300     0.07700
C283        C  0.15619754  0.60013457  0.65442005     0.09600
C284        C  0.12262599  0.58306721  0.63643447    -0.17200
C285        C  0.32930338  0.66763713  0.78550079    -0.14300
C286        C  0.35686340  0.66261862  0.80636967    -0.29400
H287        H  0.30496229  0.67137603  0.79894464     0.14800
H288        H  0.38200236  0.66056427  0.79239265     0.15300
C289        C  0.39134209  0.61362314  0.92310538    -0.16300
C290        C  0.40822374  0.59667797  0.93727199     0.07700
C291        C  0.42762841  0.57697273  0.95481758     0.09600
C292        C  0.44374399  0.56037317  0.97098091    -0.17200
C293        C  0.43307493  0.85531833  0.96251307    -0.16300
C294        C  0.41638202  0.82154570  0.94497953     0.07700
C295        C  0.39832168  0.78055822  0.92707352     0.09600
C296        C  0.38477312  0.74458013  0.91459373    -0.17200
C297        C  0.25747141  0.61451668  0.91005649    -0.16300
C298        C  0.22134417  0.60067929  0.92290777     0.07700
C299        C  0.18065664  0.58319233  0.94183657     0.09600
C300        C  0.14724605  0.56736059  0.96027572    -0.17200
C301        C  0.87077638  0.13482925  0.90762674     0.88700
C302        C  0.82170501  0.11079830  0.91737293    -0.51600
C303        C  0.80226961  0.12992543  0.90201708     0.11600
C304        C  0.83355473  0.17116206  0.87789117     0.22500
C305        C  0.87323443  0.13694275  0.86482900    -0.52300
C306        C  0.85376301  0.15586644  0.84890840     0.11700
C307        C  0.89145093  0.18246186  0.92001653    -0.51800
C308        C  0.87195278  0.20145938  0.90450691     0.12300
H309        H  0.80426413  0.08216659  0.93584273     0.16800
H310        H  0.81776481  0.18690223  0.86567853     0.02500
H311        H  0.88928319  0.12470508  0.84844687     0.17100
H312        H  0.91858436  0.19942811  0.93969868     0.16900
C313        C  0.84296412  0.14630757  0.68362002     0.88700
C314        C  0.86582551  0.19522817  0.67415265    -0.51600
C315        C  0.84788467  0.21442606  0.69221564     0.11600
C316        C  0.80896031  0.18295282  0.71861482     0.22500
C317        C  0.84481567  0.14400287  0.72616854    -0.52300
C318        C  0.82766773  0.16370593  0.74510522     0.11700
C319        C  0.79431923  0.12518035  0.67473365    -0.51800
C320        C  0.77641673  0.14437394  0.69286628     0.12300
H321        H  0.89284390  0.21277548  0.65404616     0.16800
H322        H  0.79438287  0.19868522  0.73324806     0.02500
H323        H  0.85788363  0.12713156  0.73968607     0.17100
H324        H  0.77603634  0.09840921  0.65489875     0.16900
C325        C  0.65083555  0.34819720  0.18124767     0.88700
C326        C  0.62897957  0.29942120  0.17261234    -0.51600
C327        C  0.64717795  0.28099212  0.19140802     0.11600
C328        C  0.68556354  0.31309930  0.21739839     0.22500
C329        C  0.64785515  0.35034803  0.22375457    -0.52300
C330        C  0.66640632  0.33240871  0.24328368     0.11700
C331        C  0.69979692  0.37014410  0.17243413    -0.51800
C332        C  0.71798792  0.35163783  0.19113187     0.12300
H333        H  0.60236571  0.28137212  0.15258582     0.16800
H334        H  0.70046756  0.29799731  0.23249365     0.02500
H335        H  0.63115900  0.36400115  0.23668172     0.17100
H336        H  0.71810864  0.39697138  0.15228788     0.16900
C337        C  0.63254355  0.36937893  0.40695744     0.88700
C338        C  0.68019231  0.39002010  0.41933384    -0.51600
C339        C  0.69948274  0.37112846  0.40314138     0.11600
C340        C  0.66950215  0.33339690  0.37592229     0.22500
C341        C  0.63481596  0.37286537  0.36422282    -0.52300
C342        C  0.65410521  0.35409535  0.34759894     0.11700
C343        C  0.60873549  0.32017989  0.41578545    -0.51800
C344        C  0.62823918  0.30139952  0.39978842     0.12300
H345        H  0.69690249  0.41657669  0.43956707     0.16800
H346        H  0.68554275  0.31811144  0.36324294     0.02500
H347        H  0.62246391  0.38914216  0.34839817     0.17100
H348        H  0.58017715  0.30224840  0.43432825     0.16900
Zn349      Zn  0.98231731  0.02006684  0.06885003     1.49700
Zn350      Zn  0.57129155  0.02389430  0.06404526     1.49400
Zn351      Zn  0.97895705  0.43110544  0.06465509     1.49100
Zn352      Zn  0.50845559  0.99348282  0.99199107     1.49500
O353        O  0.50981888  0.99190725  0.04726301    -1.82000
O354        O  0.52421851  0.07148732  0.10110696    -0.72600
O355        O  0.58301265  0.48313006  0.09062915    -0.72400
O356        O  0.92813420  0.41503967  0.09945917    -0.71900
O357        O  0.58634144  0.07404251  0.09866319    -0.72600
O358        O  0.92929898  0.47634592  0.10105226    -0.72200
O359        O  0.51807302  0.41832868  0.09102334    -0.72800
O360        O  0.97461948  0.43260613  0.97047531    -0.72200
O361        O  0.61341338  0.04893880  0.01996399    -0.72900
O362        O  0.95390265  0.38925743  0.02099348    -0.72300
O363        O  0.57016330  0.02645996  0.96977764    -0.72800
O364        O  0.98026577  0.02458315  0.97452055    -0.72700
O365        O  0.96141897  0.04190730  0.02777552    -0.72500
C366        C  0.56417119  0.08878956  0.11041920     0.79300
C367        C  0.55885824  0.44234157  0.09891986     0.79800
C368        C  0.91238476  0.43645638  0.11069893     0.78800
C369        C  0.95493614  0.39455629  0.98561045     0.79100
C370        C  0.60821401  0.04668078  0.98456861     0.80300
C371        C  0.96292326  0.04148898  0.99209959     0.79300
Zn372      Zn  0.96147281  0.03514339  0.52569865     1.49700
Zn373      Zn  0.55130990  0.04178594  0.52884487     1.49400
Zn374      Zn  0.98511277  0.50853647  0.60353443     1.49100
Zn375      Zn  0.95685128  0.44585033  0.53129482     1.49500
O376        O  0.98847110  0.50720122  0.54831431    -1.82000
O377        O  0.50534973  0.09023281  0.49128530    -0.72600
O378        O  0.59214107  0.06557876  0.57354706    -0.72400
O379        O  0.95417649  0.03759159  0.61966609    -0.71900
O380        O  0.56774566  0.09357669  0.49501912    -0.72600
O381        O  0.93843616  0.05597959  0.56539896    -0.72200
O382        O  0.54718247  0.04382262  0.62313601    -0.72800
O383        O  0.93210895  0.40361452  0.57537532    -0.72200
O384        O  0.56295557  0.50154793  0.50054318    -0.72900
O385        O  0.95116099  0.44664505  0.62552602    -0.72300
O386        O  0.49776267  0.43691392  0.49943414    -0.72800
O387        O  0.90603202  0.43026022  0.49732389    -0.72700
O388        O  0.90997892  0.49291799  0.49283103    -0.72500
C389        C  0.54579841  0.10837739  0.48289762     0.79300
C390        C  0.58575234  0.06377695  0.60886408     0.79800
C391        C  0.93774803  0.05470869  0.60105669     0.78800
C392        C  0.93244985  0.40868503  0.61073274     0.79100
C393        C  0.53863513  0.46120986  0.49116557     0.79500
C394        C  0.89186471  0.45256605  0.48469164     0.79300
C395        C  0.74327898  0.38427075  0.41321744    -0.16300
C396        C  0.77923520  0.39741934  0.42546828     0.07700
C397        C  0.82003711  0.41497365  0.44346964     0.09600
C398        C  0.85358107  0.43145616  0.46125954    -0.17200
C399        C  0.61172655  0.38968732  0.42428415    -0.16300
C400        C  0.59465905  0.40642799  0.43846333     0.07700
C401        C  0.57483388  0.42589712  0.45560077     0.09600
C402        C  0.55813816  0.44224747  0.47118325    -0.17200
C403        C  0.61418828  0.25706774  0.40939290    -0.16300
C404        C  0.60086803  0.22111896  0.42218370     0.07700
C405        C  0.58353903  0.18058582  0.44113375     0.09600
C406        C  0.56723465  0.14712881  0.45946061    -0.17200
C407        C  0.66673834  0.33064944  0.28519893    -0.14300
C408        C  0.65988451  0.35676489  0.30627824    -0.29400
H409        H  0.67154146  0.30697138  0.29847788     0.14800
H410        H  0.65654535  0.38123222  0.29264103     0.15300
C411        C  0.58499709  0.12664145  0.13442794    -0.16300
C412        C  0.60166623  0.15972906  0.15292187     0.07700
C413        C  0.61987257  0.20030299  0.17158697     0.09600
C414        C  0.63367835  0.23653694  0.18357948    -0.17200
C415        C  0.87379706  0.41481799  0.13442523    -0.16300
C416        C  0.84012274  0.39760811  0.15264624     0.07700
C417        C  0.79902764  0.37901985  0.17110312     0.09600
C418        C  0.76255379  0.36510706  0.18308815    -0.17200
C419        C  0.57850089  0.42250427  0.11693374    -0.16300
C420        C  0.59521889  0.40538788  0.13085921     0.07700
C421        C  0.61474972  0.38518699  0.14685252     0.09600
C422        C  0.63122269  0.36814518  0.16140333    -0.17200
C423        C  0.86248463  0.12570179  0.66456200    -0.16300
C424        C  0.87961397  0.10890884  0.65067249     0.07700
C425        C  0.90019027  0.08951599  0.63497633     0.09600
C426        C  0.91764048  0.07329533  0.62059700    -0.17200
C427        C  0.91154329  0.37019267  0.63455598    -0.16300
C428        C  0.89478933  0.33655434  0.65274901     0.07700
C429        C  0.87639495  0.29552213  0.67125246     0.09600
C430        C  0.86222757  0.25911134  0.68349590    -0.17200
C431        C  0.73234504  0.13187966  0.68420518    -0.16300
C432        C  0.69646905  0.11865920  0.67149819     0.07700
C433        C  0.65623246  0.10087602  0.65217468     0.09600
C434        C  0.62338134  0.08442988  0.63328355    -0.17200
C435        C  0.82704857  0.16555278  0.78701200    -0.14300
C436        C  0.85532169  0.16138791  0.80760733    -0.29400
H437        H  0.80257485  0.16895965  0.80063809     0.14800
H438        H  0.88055747  0.15964339  0.79343799     0.15300
C439        C  0.89171716  0.11427593  0.92425284    -0.16300
C440        C  0.90867669  0.09727146  0.93812318     0.07700
C441        C  0.92815349  0.07743980  0.95526411     0.09600
C442        C  0.94433883  0.06078847  0.97120287    -0.17200
C443        C  0.93381779  0.35620385  0.96218869    -0.16300
C444        C  0.91708023  0.32252667  0.94451520     0.07700
C445        C  0.89903048  0.28151820  0.92666608     0.09600
C446        C  0.88542336  0.24539363  0.91452167    -0.17200
C447        C  0.75763722  0.11495081  0.91176241    -0.16300
C448        C  0.72132932  0.10090027  0.92424124     0.07700
C449        C  0.68033375  0.08307746  0.94265473     0.09600
C450        C  0.64667329  0.06694112  0.96074669    -0.17200
C451        C  0.87160003  0.63548429  0.90759514     0.88700
C452        C  0.82252569  0.61123775  0.91742194    -0.51600
C453        C  0.80285245  0.63012916  0.90208186     0.11600
C454        C  0.83393870  0.67137408  0.87788779     0.22500
C455        C  0.87396852  0.63751907  0.86479706    -0.52300
C456        C  0.85425620  0.65620295  0.84888672     0.11700
C457        C  0.89207284  0.68308764  0.91992575    -0.51800
C458        C  0.87234152  0.70185302  0.90444101     0.12300
H459        H  0.80525170  0.58262922  0.93592912     0.16800
H460        H  0.81796391  0.68693406  0.86569022     0.02500
H461        H  0.89011339  0.62538836  0.84840776     0.17100
H462        H  0.91922521  0.70019483  0.93957890     0.16900
C463        C  0.84280165  0.64604648  0.68363712     0.88700
C464        C  0.86562986  0.69495023  0.67411675    -0.51600
C465        C  0.84774321  0.71418005  0.69221208     0.11600
C466        C  0.80888140  0.68274045  0.71867926     0.22500
C467        C  0.84476565  0.64381236  0.72618513    -0.52300
C468        C  0.82765996  0.66354583  0.74514000     0.11700
C469        C  0.79413860  0.62488964  0.67484282    -0.51800
C470        C  0.77628333  0.64410872  0.69300336     0.12300
H471        H  0.89262061  0.71247613  0.65398399     0.16800
H472        H  0.79433333  0.69848921  0.73333357     0.02500
H473        H  0.85788638  0.62698467  0.73969535     0.17100
H474        H  0.77580759  0.59808373  0.65504680     0.16900
C475        C  0.65050607  0.84770499  0.18138003     0.88700
C476        C  0.62861923  0.79888924  0.17288721    -0.51600
C477        C  0.64694923  0.78055834  0.19163974     0.11600
C478        C  0.68548153  0.81280811  0.21746779     0.22500
C479        C  0.64776322  0.85004208  0.22388715    -0.52300
C480        C  0.66642958  0.83220805  0.24339389     0.11700
C481        C  0.69942280  0.86963255  0.17237308    -0.51800
C482        C  0.71775855  0.85124842  0.19103367     0.12300
H483        H  0.60190775  0.78074940  0.15296209     0.16800
H484        H  0.70048568  0.79779220  0.23253875     0.02500
H485        H  0.63109889  0.86371545  0.23683371     0.17100
H486        H  0.71761446  0.89639830  0.15215525     0.16900
C487        C  0.63238285  0.86925379  0.40700911     0.88700
C488        C  0.67999445  0.88987181  0.41948155    -0.51600
C489        C  0.69933141  0.87099425  0.40335621     0.11600
C490        C  0.66940517  0.83326802  0.37609686     0.22500
C491        C  0.63477349  0.87276485  0.36427319    -0.52300
C492        C  0.65409465  0.85399135  0.34770898     0.11700
C493        C  0.60852881  0.82003809  0.41582158    -0.51800
C494        C  0.62805765  0.80124527  0.39988421     0.12300
H495        H  0.69666575  0.91644264  0.43970618     0.16800
H496        H  0.68547103  0.81798575  0.36346454     0.02500
H497        H  0.62246663  0.88905518  0.34840378     0.17100
H498        H  0.57990058  0.80209751  0.43428931     0.16900
Zn499      Zn  0.98204438  0.51971520  0.06900786     1.49700
Zn500      Zn  0.57134280  0.52383983  0.06365352     1.49400
Zn501      Zn  0.97923043  0.93145163  0.06495917     1.49100
Zn502      Zn  0.50857212  0.49357194  0.99168800     1.49500
O503        O  0.50983766  0.49186375  0.04696864    -1.82000
O504        O  0.52434025  0.57135750  0.10097734    -0.72600
O505        O  0.58304192  0.98329524  0.09121054    -0.72400
O506        O  0.92844008  0.91555701  0.09975916    -0.71900
O507        O  0.58645444  0.57390193  0.09843086    -0.72600
O508        O  0.92947804  0.97679975  0.10093892    -0.72200
O509        O  0.51816477  0.91845125  0.09143021    -0.72800
O510        O  0.97489982  0.93257638  0.97077602    -0.72200
O511        O  0.61350907  0.54891857  0.01959086    -0.72900
O512        O  0.95407758  0.88941761  0.02143659    -0.72300
O513        O  0.57031310  0.52653500  0.96938633    -0.72800
O514        O  0.98035897  0.52483345  0.97473878    -0.72700
O515        O  0.96118726  0.54170406  0.02807041    -0.72500
C516        C  0.56429070  0.58862210  0.11027915     0.79300
C517        C  0.55890777  0.94248954  0.09945773     0.79800
C518        C  0.91259932  0.93696800  0.11077769     0.78800
C519        C  0.95515507  0.89459108  0.98603278     0.79100
C520        C  0.60835906  0.54668607  0.98419220     0.80300
C521        C  0.96294555  0.54161600  0.99239659     0.79300
Zn522      Zn  0.96132977  0.53508153  0.52549633     1.49700
Zn523      Zn  0.55129632  0.54157611  0.52894576     1.49400
Zn524      Zn  0.98517467  0.00852706  0.60372388     1.49100
Zn525      Zn  0.95683040  0.94580556  0.53152244     1.49500
O526        O  0.98854695  0.00718647  0.54850009    -1.82000
O527        O  0.50543619  0.59011754  0.49146161    -0.72600
O528        O  0.59213144  0.56542579  0.57362974    -0.72400
O529        O  0.95421167  0.53769649  0.61945395    -0.71900
O530        O  0.56775063  0.59327727  0.49492567    -0.72600
O531        O  0.93837338  0.55599141  0.56518474    -0.72200
O532        O  0.54719192  0.54339869  0.62326624    -0.72800
O533        O  0.93213531  0.90359428  0.57565108    -0.72200
O534        O  0.56303567  0.00188433  0.50030929    -0.72900
O535        O  0.95141631  0.94666200  0.62579479    -0.72300
O536        O  0.49790515  0.93717463  0.49925878    -0.72800
O537        O  0.90598800  0.93028725  0.49753214    -0.72700
O538        O  0.91016652  0.99306016  0.49292942    -0.72500
C539        C  0.54581788  0.60812984  0.48287444     0.79300
C540        C  0.58574723  0.56347254  0.60895712     0.79800
C541        C  0.93775327  0.55478150  0.60084226     0.78800
C542        C  0.93263604  0.90868653  0.61101787     0.79100
C543        C  0.53876230  0.96153671  0.49094515     0.79500
C544        C  0.89193299  0.95267550  0.48483639     0.79300
C545        C  0.74317287  0.88425043  0.41345747    -0.16300
C546        C  0.77917299  0.89752110  0.42570198     0.07700
C547        C  0.82003150  0.91515224  0.44366326     0.09600
C548        C  0.85361642  0.93162148  0.46141321    -0.17200
C549        C  0.61157516  0.88961920  0.42426200    -0.16300
C550        C  0.59461794  0.90651089  0.43836909     0.07700
C551        C  0.57493548  0.92617157  0.45542297     0.09600
C552        C  0.55830100  0.94261178  0.47095851    -0.17200
C553        C  0.61390505  0.75684424  0.40941341    -0.16300
C554        C  0.60059689  0.72084286  0.42210312     0.07700
C555        C  0.58337958  0.68026245  0.44097663     0.09600
C556        C  0.56718754  0.64681237  0.45931879    -0.17200
C557        C  0.66686209  0.83055848  0.28532427    -0.14300
C558        C  0.65994178  0.85665050  0.30638459    -0.29400
H559        H  0.67172110  0.80693351  0.29862833     0.14800
H560        H  0.65656522  0.88107772  0.29272234     0.15300
C561        C  0.58510138  0.62638958  0.13439800    -0.16300
C562        C  0.60168140  0.65939859  0.15299839     0.07700
C563        C  0.61976697  0.69990134  0.17177508     0.09600
C564        C  0.63350029  0.73610400  0.18382310    -0.17200
C565        C  0.87391699  0.91534477  0.13442719    -0.16300
C566        C  0.84013962  0.89796343  0.15254394     0.07700
C567        C  0.79892626  0.87905468  0.17091873     0.09600
C568        C  0.76238144  0.86488369  0.18290960    -0.17200
C569        C  0.57850948  0.92262268  0.11751915    -0.16300
C570        C  0.59507188  0.90531026  0.13137794     0.07700
C571        C  0.61440200  0.88481604  0.14720221     0.09600
C572        C  0.63079513  0.86761158  0.16160748    -0.17200
C573        C  0.86228740  0.62544462  0.66453208    -0.16300
C574        C  0.87945900  0.60873871  0.65056555     0.07700
C575        C  0.90013218  0.58949078  0.63479350     0.09600
C576        C  0.91764719  0.57335862  0.62038293    -0.17200
C577        C  0.91180414  0.87019709  0.63485888    -0.16300
C578        C  0.89501973  0.83651851  0.65300882     0.07700
C579        C  0.87649347  0.79540040  0.67141275     0.09600
C580        C  0.86219208  0.75891888  0.68356565    -0.17200
C581        C  0.73220802  0.63159825  0.68440767    -0.16300
C582        C  0.69634402  0.61835419  0.67168557     0.07700
C583        C  0.65616478  0.60055672  0.65229841     0.09600
C584        C  0.62336310  0.58411053  0.63336121    -0.17200
C585        C  0.82718328  0.66551369  0.78703971    -0.14300
C586        C  0.85562137  0.66154942  0.80757422    -0.29400
H587        H  0.80270411  0.66887863  0.80071220     0.14800
H588        H  0.88085401  0.65984673  0.79334225     0.15300
C589        C  0.89273653  0.61516376  0.92424471    -0.16300
C590        C  0.90962377  0.59816593  0.93824597     0.07700
C591        C  0.92878918  0.57814022  0.95556161     0.09600
C592        C  0.94464998  0.56122398  0.97157225    -0.17200
C593        C  0.93397313  0.85618080  0.96270154    -0.16300
C594        C  0.91717855  0.82257349  0.94493453     0.07700
C595        C  0.89909979  0.78170266  0.92685486     0.09600
C596        C  0.88555733  0.74567780  0.91452396    -0.17200
C597        C  0.75814762  0.61491047  0.91186301    -0.16300
C598        C  0.72177236  0.60075853  0.92425728     0.07700
C599        C  0.68064950  0.58293199  0.94247671     0.09600
C600        C  0.64687749  0.56685627  0.96041556    -0.17200
loop_ 
_geom_bond_atom_site_label_1 
_geom_bond_atom_site_label_2 
_geom_bond_distance 
_geom_bond_site_symmetry_2 
_ccdc_geom_bond_type 
C1            C2   1.530       .  S
C1            C7   1.530       .  S
C1            C5   1.526       .  S
C1          C139   1.470       .  S
C2            H9   1.087       .  S
C2            C3   1.364       .  D
C3            C4   1.542       .  S
C3          C147   1.443       .  S
C4            C8   1.542       .  S
C4            C6   1.547       .  S
C4           H10   1.110       .  S
C5           H11   1.087       .  S
C5            C6   1.368       .  D
C6          C136   1.483       .  S
C7           H12   1.087       .  S
C7            C8   1.364       .  D
C8          C146   1.442       .  S
C13          C14   1.529       .  S
C13          C19   1.527       .  S
C13          C17   1.522       .  S
C13         C123   1.464       .  S
C14          H21   1.087       .  S
C14          C15   1.363       .  D
C15          C16   1.545       .  S
C15         C130   1.445       .  S
C16          C20   1.545       .  S
C16          C18   1.551       .  S
C16          H22   1.111       .  S
C17          H23   1.085       .  S
C17          C18   1.371       .  D
C18         C135   1.496       .  S
C19          H24   1.087       .  S
C19          C20   1.363       .  D
C20         C131   1.445       .  S
C25          C26   1.529       .  S
C25          C31   1.527       .  S
C25          C29   1.523       .  S
C25         C122   1.464       .  S
C26          H33   1.087       .  S
C26          C27   1.363       .  D
C27          C28   1.544       .  S
C27         C114   1.444       .  S
C28          C32   1.543       .  S
C28          C30   1.549       .  S
C28          H34   1.111       .  S
C29          H35   1.085       .  S
C29          C30   1.372       .  D
C30         C107   1.494       .  S
C31          H36   1.087       .  S
C31          C32   1.363       .  D
C32         C118   1.442       .  S
C37          C38   1.530       .  S
C37          C43   1.530       .  S
C37          C41   1.525       .  S
C37          C99   1.467       .  S
C38          H45   1.087       .  S
C38          C39   1.364       .  D
C39          C40   1.541       .  S
C39          C95   1.442       .  S
C40          C44   1.541       .  S
C40          C42   1.546       .  S
C40          H46   1.110       .  S
C41          H47   1.087       .  S
C41          C42   1.367       .  D
C42         C108   1.481       .  S
C43          H48   1.087       .  S
C43          C44   1.363       .  D
C44         C103   1.440       .  S
Zn49         O65   2.017       .  S
Zn49        O354   2.019       .  S
Zn49        O208   2.021   1_545  S
Zn49        O353   1.960   1_545  S
Zn50         O57   2.026       .  S
Zn50         O61   2.021       .  S
Zn50        O205   2.013   1_545  S
Zn50         O53   1.965   1_545  S
Zn51         O56   2.022       .  S
Zn51         O62   2.013       .  S
Zn51        O359   2.010       .  S
Zn51        O503   1.964       .  S
Zn52         O63   2.027   1_565  S
Zn52        O510   2.024   1_455  S
Zn52        O364   2.023   1_465  S
Zn52         O53   1.972   1_556  S
O53        Zn349   1.960   1_465  S
O53        Zn501   1.965   1_455  S
O54        Zn349   2.021   1_455  S
O54          C66   1.272       .  A
O55        Zn200   2.013       .  S
O55          C67   1.272       .  A
O56          C68   1.272       .  A
O57          C66   1.273       .  A
O58        Zn199   2.022       .  S
O58          C68   1.272       .  A
O59        Zn351   2.012   1_455  S
O59          C67   1.272       .  A
O60        Zn502   2.026       .  S
O60          C69   1.273       .  A
O61          C70   1.272   1_554  A
O62          C69   1.272   1_554  A
O63          C70   1.273       .  A
O64        Zn352   2.024   1_545  S
O64          C71   1.273       .  A
O65          C71   1.272   1_554  A
C66         C111   1.439       .  S
C67         C119   1.432       .  S
C68         C115   1.438       .  S
C69         C143   1.436       .  S
C70         C150   1.439       .  S
C71         C142   1.436       .  S
Zn72         O81   2.001       .  S
Zn72        O377   2.013       .  S
Zn72        O238   2.013   1_545  S
Zn72        O226   1.959       .  S
Zn73         O78   2.019       .  S
Zn73         O80   2.022       .  S
Zn73        O234   2.016   1_545  S
Zn73        O526   1.964   1_455  S
Zn74         O85   2.029       .  S
Zn74        O229   2.022       .  S
Zn74        O532   2.027       .  S
Zn74         O76   1.973       .  S
Zn75         O83   2.025       .  S
Zn75         O87   2.028       .  S
Zn75        O386   2.016       .  S
Zn75         O76   1.966       .  S
O76        Zn222   1.959       .  S
O76        Zn523   1.967       .  S
O77        Zn372   2.012   1_455  S
O77          C89   1.271       .  A
O78          C90   1.272       .  A
O79        Zn224   2.022       .  S
O79          C91   1.273       .  A
O80          C89   1.272       .  A
O81          C91   1.270       .  A
O82        Zn524   2.032   1_455  S
O82          C90   1.273       .  A
O83          C92   1.273       .  A
O84        Zn223   2.016       .  S
O84          C93   1.272       .  A
O85          C92   1.273       .  A
O86        Zn375   2.016       .  S
O86          C93   1.272   1_655  A
O87          C94   1.273       .  A
O88        Zn222   2.014       .  S
O88          C94   1.271       .  A
C89         C106   1.435       .  S
C90         C134   1.440       .  S
C91         C126   1.431       .  S
C92         C127   1.441       .  S
C93         C102   1.434       .  S
C94          C98   1.438       .  S
C95          C96   1.206       .  T
C96          C97   1.414       .  S
C97          C98   1.207       .  T
C99         C100   1.205       .  T
C100        C101   1.411       .  S
C101        C102   1.205       .  T
C103        C104   1.205       .  T
C104        C105   1.411       .  S
C105        C106   1.205       .  T
C107        H109   1.084       .  S
C107        C108   1.347       .  D
C108        H110   1.083       .  S
C111        C112   1.208       .  T
C112        C113   1.415       .  S
C113        C114   1.207       .  T
C115        C116   1.207       .  T
C116        C117   1.414       .  S
C117        C118   1.206       .  T
C119        C120   1.204       .  T
C120        C121   1.408       .  S
C121        C122   1.204       .  T
C123        C124   1.203       .  T
C124        C125   1.408       .  S
C125        C126   1.203       .  T
C127        C128   1.209       .  T
C128        C129   1.417       .  S
C129        C130   1.208       .  T
C131        C132   1.208       .  T
C132        C133   1.416       .  S
C133        C134   1.208       .  T
C135        H137   1.085       .  S
C135        C136   1.349       .  D
C136        H138   1.084       .  S
C139        C140   1.206       .  T
C140        C141   1.413       .  S
C141        C142   1.206       .  T
C143        C144   1.206       .  T
C144        C145   1.413       .  S
C145        C146   1.206       .  T
C147        C148   1.207       .  T
C148        C149   1.415       .  S
C149        C150   1.208       .  T
C151        C152   1.530       .  S
C151        C157   1.530       .  S
C151        C155   1.526       .  S
C151        C289   1.470       .  S
C152        H159   1.087       .  S
C152        C153   1.364       .  D
C153        C154   1.542       .  S
C153        C297   1.444       .  S
C154        C158   1.542       .  S
C154        C156   1.547       .  S
C154        H160   1.110       .  S
C155        H161   1.087       .  S
C155        C156   1.368       .  D
C156        C286   1.483       .  S
C157        H162   1.087       .  S
C157        C158   1.364       .  D
C158        C296   1.442       .  S
C163        C164   1.529       .  S
C163        C169   1.528       .  S
C163        C167   1.522       .  S
C163        C273   1.465       .  S
C164        H171   1.087       .  S
C164        C165   1.363       .  D
C165        C166   1.545       .  S
C165        C280   1.446       .  S
C166        C170   1.546       .  S
C166        C168   1.551       .  S
C166        H172   1.111       .  S
C167        H173   1.085       .  S
C167        C168   1.371       .  D
C168        C285   1.497       .  S
C169        H174   1.087       .  S
C169        C170   1.363       .  D
C170        C281   1.445       .  S
C175        C176   1.529       .  S
C175        C181   1.527       .  S
C175        C179   1.523       .  S
C175        C272   1.464       .  S
C176        H183   1.087       .  S
C176        C177   1.363       .  D
C177        C178   1.544       .  S
C177        C264   1.444       .  S
C178        C182   1.543       .  S
C178        C180   1.549       .  S
C178        H184   1.111       .  S
C179        H185   1.085       .  S
C179        C180   1.372       .  D
C180        C257   1.494       .  S
C181        H186   1.087       .  S
C181        C182   1.363       .  D
C182        C268   1.442       .  S
C187        C188   1.530       .  S
C187        C193   1.530       .  S
C187        C191   1.526       .  S
C187        C249   1.467       .  S
C188        H195   1.087       .  S
C188        C189   1.364       .  D
C189        C190   1.541       .  S
C189        C245   1.442       .  S
C190        C194   1.540       .  S
C190        C192   1.546       .  S
C190        H196   1.110       .  S
C191        H197   1.087       .  S
C191        C192   1.367       .  D
C192        C258   1.481       .  S
C193        H198   1.087       .  S
C193        C194   1.363       .  D
C194        C253   1.440       .  S
Zn199       O504   2.019       .  S
Zn199       O215   2.016       .  S
Zn199       O503   1.960       .  S
Zn200       O207   2.027       .  S
Zn200       O211   2.021       .  S
Zn200       O203   1.965       .  S
Zn201       O206   2.020       .  S
Zn201       O509   2.010       .  S
Zn201       O212   2.013       .  S
Zn201       O353   1.963       .  S
Zn202       O360   2.025   1_455  S
Zn202       O213   2.027       .  S
Zn202       O514   2.022   1_455  S
Zn202       O203   1.972   1_556  S
O203       Zn499   1.960   1_455  S
O203       Zn351   1.965   1_455  S
O204       Zn499   2.021   1_455  S
O204        C216   1.272       .  A
O205        C217   1.271       .  A
O206        C218   1.272       .  A
O207        C216   1.273       .  A
O208        C218   1.272       .  A
O209       Zn501   2.013   1_455  S
O209        C217   1.272       .  A
O210       Zn352   2.027       .  S
O210        C219   1.273       .  A
O211        C220   1.272   1_554  A
O212        C219   1.271   1_554  A
O213        C220   1.273       .  A
O214       Zn502   2.024       .  S
O214        C221   1.273       .  A
O215        C221   1.272   1_554  A
C216        C261   1.439       .  S
C217        C269   1.432       .  S
C218        C265   1.437       .  S
C219        C293   1.436       .  S
C220        C300   1.439       .  S
C221        C292   1.436       .  S
Zn222       O527   2.014       .  S
Zn222       O231   2.002       .  S
Zn223       O228   2.019       .  S
Zn223       O230   2.021       .  S
Zn223       O376   1.963   1_455  S
Zn224       O382   2.028       .  S
Zn224       O235   2.030   1_545  S
Zn224       O226   1.972       .  S
Zn225       O233   2.025       .  S
Zn225       O536   2.016       .  S
Zn225       O237   2.029       .  S
Zn225       O226   1.966   1_565  S
O226       Zn373   1.966       .  S
O227       Zn522   2.012   1_455  S
O227        C239   1.271       .  A
O228        C240   1.272       .  A
O229        C241   1.273       .  A
O230        C239   1.272       .  A
O231        C241   1.270       .  A
O232       Zn374   2.033   1_455  S
O232        C240   1.274       .  A
O233        C242   1.273       .  A
O234        C243   1.272       .  A
O235        C242   1.273       .  A
O236       Zn525   2.016       .  S
O236        C243   1.272   1_655  A
O237        C244   1.273       .  A
O238        C244   1.271       .  A
C239        C256   1.435       .  S
C240        C284   1.440       .  S
C241        C276   1.432       .  S
C242        C277   1.441       .  S
C243        C252   1.434       .  S
C244        C248   1.437       .  S
C245        C246   1.206       .  T
C246        C247   1.413       .  S
C247        C248   1.207       .  T
C249        C250   1.205       .  T
C250        C251   1.411       .  S
C251        C252   1.205       .  T
C253        C254   1.205       .  T
C254        C255   1.411       .  S
C255        C256   1.205       .  T
C257        H259   1.084       .  S
C257        C258   1.348       .  D
C258        H260   1.083       .  S
C261        C262   1.208       .  T
C262        C263   1.416       .  S
C263        C264   1.208       .  T
C265        C266   1.207       .  T
C266        C267   1.413       .  S
C267        C268   1.206       .  T
C269        C270   1.203       .  T
C270        C271   1.408       .  S
C271        C272   1.203       .  T
C273        C274   1.204       .  T
C274        C275   1.409       .  S
C275        C276   1.204       .  T
C277        C278   1.209       .  T
C278        C279   1.417       .  S
C279        C280   1.208       .  T
C281        C282   1.208       .  T
C282        C283   1.416       .  S
C283        C284   1.209       .  T
C285        H287   1.085       .  S
C285        C286   1.349       .  D
C286        H288   1.084       .  S
C289        C290   1.206       .  T
C290        C291   1.413       .  S
C291        C292   1.206       .  T
C293        C294   1.206       .  T
C294        C295   1.413       .  S
C295        C296   1.206       .  T
C297        C298   1.207       .  T
C298        C299   1.415       .  S
C299        C300   1.208       .  T
C301        C302   1.530       .  S
C301        C307   1.530       .  S
C301        C305   1.526       .  S
C301        C439   1.469       .  S
C302        H309   1.087       .  S
C302        C303   1.364       .  D
C303        C304   1.541       .  S
C303        C447   1.442       .  S
C304        C308   1.542       .  S
C304        C306   1.546       .  S
C304        H310   1.110       .  S
C305        H311   1.087       .  S
C305        C306   1.367       .  D
C306        C436   1.481       .  S
C307        H312   1.087       .  S
C307        C308   1.364       .  D
C308        C446   1.442       .  S
C313        C314   1.529       .  S
C313        C319   1.527       .  S
C313        C317   1.522       .  S
C313        C423   1.465       .  S
C314        H321   1.087       .  S
C314        C315   1.363       .  D
C315        C316   1.543       .  S
C315        C430   1.444       .  S
C316        C320   1.545       .  S
C316        C318   1.550       .  S
C316        H322   1.111       .  S
C317        H323   1.085       .  S
C317        C318   1.371       .  D
C318        C435   1.495       .  S
C319        H324   1.087       .  S
C319        C320   1.363       .  D
C320        C431   1.445       .  S
C325        C326   1.527       .  S
C325        C331   1.528       .  S
C325        C329   1.523       .  S
C325        C422   1.464       .  S
C326        H333   1.087       .  S
C326        C327   1.363       .  D
C327        C328   1.543       .  S
C327        C414   1.441       .  S
C328        C332   1.543       .  S
C328        C330   1.549       .  S
C328        H334   1.111       .  S
C329        H335   1.086       .  S
C329        C330   1.372       .  D
C330        C407   1.495       .  S
C331        H336   1.087       .  S
C331        C332   1.363       .  D
C332        C418   1.442       .  S
C337        C338   1.530       .  S
C337        C343   1.530       .  S
C337        C341   1.525       .  S
C337        C399   1.467       .  S
C338        H345   1.087       .  S
C338        C339   1.364       .  D
C339        C340   1.540       .  S
C339        C395   1.440       .  S
C340        C344   1.541       .  S
C340        C342   1.547       .  S
C340        H346   1.110       .  S
C341        H347   1.087       .  S
C341        C342   1.367       .  D
C342        C408   1.481       .  S
C343        H348   1.087       .  S
C343        C344   1.364       .  D
C344        C403   1.442       .  S
Zn349       O508   2.022   1_545  S
Zn349       O365   2.015       .  S
Zn350       O505   2.013   1_545  S
Zn350       O357   2.022       .  S
Zn350       O361   2.016       .  S
Zn350       O353   1.964   1_545  S
Zn351       O356   2.023       .  S
Zn351       O362   2.015       .  S
Zn352       O363   2.026   1_565  S
Zn352       O353   1.971   1_556  S
O354        C366   1.272       .  A
O355       Zn500   2.011       .  S
O355        C367   1.271       .  A
O356        C368   1.272       .  A
O357        C366   1.272       .  A
O358       Zn499   2.020       .  S
O358        C368   1.272       .  A
O359        C367   1.271       .  A
O360        C369   1.272       .  A
O361        C370   1.272   1_554  A
O362        C369   1.272   1_554  A
O363        C370   1.273       .  A
O364        C371   1.273       .  A
O365        C371   1.272   1_554  A
C366        C411   1.437       .  S
C367        C419   1.431       .  S
C368        C415   1.438       .  S
C369        C443   1.437       .  S
C370        C450   1.437       .  S
C371        C442   1.436       .  S
Zn372       O381   2.003       .  S
Zn372       O538   2.013   1_545  S
Zn372       O526   1.959       .  S
Zn373       O378   2.025       .  S
Zn373       O380   2.029       .  S
Zn373       O534   2.017       .  S
Zn374       O529   2.025       .  S
Zn374       O385   2.030       .  S
Zn374       O376   1.972       .  S
Zn375       O383   2.020       .  S
Zn375       O387   2.022       .  S
Zn375       O376   1.964       .  S
O376       Zn522   1.959       .  S
O377        C389   1.271       .  A
O378        C390   1.273       .  A
O379       Zn524   2.026       .  S
O379        C391   1.273       .  A
O380        C389   1.272       .  A
O381        C391   1.270       .  A
O382        C390   1.273       .  A
O383        C392   1.273       .  A
O384       Zn523   2.017       .  S
O384        C393   1.272       .  A
O385        C392   1.273       .  A
O386        C393   1.272       .  A
O387        C394   1.272       .  A
O388       Zn522   2.012       .  S
O388        C394   1.271       .  A
C389        C406   1.437       .  S
C390        C434   1.440       .  S
C391        C426   1.433       .  S
C392        C427   1.439       .  S
C393        C402   1.434       .  S
C394        C398   1.435       .  S
C395        C396   1.205       .  T
C396        C397   1.411       .  S
C397        C398   1.205       .  T
C399        C400   1.205       .  T
C400        C401   1.411       .  S
C401        C402   1.205       .  T
C403        C404   1.206       .  T
C404        C405   1.413       .  S
C405        C406   1.207       .  T
C407        H409   1.085       .  S
C407        C408   1.348       .  D
C408        H410   1.085       .  S
C411        C412   1.206       .  T
C412        C413   1.413       .  S
C413        C414   1.206       .  T
C415        C416   1.207       .  T
C416        C417   1.414       .  S
C417        C418   1.206       .  T
C419        C420   1.203       .  T
C420        C421   1.408       .  S
C421        C422   1.203       .  T
C423        C424   1.204       .  T
C424        C425   1.409       .  S
C425        C426   1.204       .  T
C427        C428   1.208       .  T
C428        C429   1.415       .  S
C429        C430   1.207       .  T
C431        C432   1.208       .  T
C432        C433   1.416       .  S
C433        C434   1.208       .  T
C435        H437   1.085       .  S
C435        C436   1.349       .  D
C436        H438   1.084       .  S
C439        C440   1.206       .  T
C440        C441   1.412       .  S
C441        C442   1.206       .  T
C443        C444   1.206       .  T
C444        C445   1.413       .  S
C445        C446   1.206       .  T
C447        C448   1.206       .  T
C448        C449   1.414       .  S
C449        C450   1.207       .  T
C451        C452   1.530       .  S
C451        C457   1.530       .  S
C451        C455   1.526       .  S
C451        C589   1.468       .  S
C452        H459   1.087       .  S
C452        C453   1.364       .  D
C453        C454   1.541       .  S
C453        C597   1.443       .  S
C454        C458   1.542       .  S
C454        C456   1.546       .  S
C454        H460   1.110       .  S
C455        H461   1.087       .  S
C455        C456   1.367       .  D
C456        C586   1.481       .  S
C457        H462   1.087       .  S
C457        C458   1.364       .  D
C458        C596   1.441       .  S
C463        C464   1.529       .  S
C463        C469   1.527       .  S
C463        C467   1.522       .  S
C463        C573   1.465       .  S
C464        H471   1.087       .  S
C464        C465   1.363       .  D
C465        C466   1.543       .  S
C465        C580   1.444       .  S
C466        C470   1.545       .  S
C466        C468   1.550       .  S
C466        H472   1.111       .  S
C467        H473   1.085       .  S
C467        C468   1.371       .  D
C468        C585   1.495       .  S
C469        H474   1.087       .  S
C469        C470   1.363       .  D
C470        C581   1.444       .  S
C475        C476   1.527       .  S
C475        C481   1.528       .  S
C475        C479   1.523       .  S
C475        C572   1.464       .  S
C476        H483   1.087       .  S
C476        C477   1.363       .  D
C477        C478   1.543       .  S
C477        C564   1.442       .  S
C478        C482   1.543       .  S
C478        C480   1.549       .  S
C478        H484   1.111       .  S
C479        H485   1.086       .  S
C479        C480   1.372       .  D
C480        C557   1.495       .  S
C481        H486   1.087       .  S
C481        C482   1.363       .  D
C482        C568   1.443       .  S
C487        C488   1.530       .  S
C487        C493   1.530       .  S
C487        C491   1.525       .  S
C487        C549   1.467       .  S
C488        H495   1.087       .  S
C488        C489   1.364       .  D
C489        C490   1.541       .  S
C489        C545   1.441       .  S
C490        C494   1.541       .  S
C490        C492   1.547       .  S
C490        H496   1.110       .  S
C491        H497   1.087       .  S
C491        C492   1.367       .  D
C492        C558   1.481       .  S
C493        H498   1.087       .  S
C493        C494   1.364       .  D
C494        C553   1.443       .  S
Zn499       O515   2.014       .  S
Zn500       O507   2.022       .  S
Zn500       O511   2.017       .  S
Zn500       O503   1.964       .  S
Zn501       O506   2.023       .  S
Zn501       O512   2.015       .  S
Zn502       O513   2.028       .  S
Zn502       O503   1.971   1_556  S
O504        C516   1.272       .  A
O505        C517   1.271       .  A
O506        C518   1.272       .  A
O507        C516   1.272       .  A
O508        C518   1.272       .  A
O509        C517   1.271       .  A
O510        C519   1.272       .  A
O511        C520   1.272   1_554  A
O512        C519   1.272   1_554  A
O513        C520   1.273       .  A
O514        C521   1.273       .  A
O515        C521   1.272   1_554  A
C516        C561   1.437       .  S
C517        C569   1.431       .  S
C518        C565   1.438       .  S
C519        C593   1.436       .  S
C520        C600   1.438       .  S
C521        C592   1.435       .  S
Zn522       O531   2.003       .  S
Zn523       O528   2.024       .  S
Zn523       O530   2.030       .  S
Zn524       O535   2.030   1_545  S
Zn524       O526   1.973       .  S
Zn525       O533   2.021       .  S
Zn525       O537   2.024       .  S
Zn525       O526   1.965   1_565  S
O527        C539   1.271       .  A
O528        C540   1.273       .  A
O529        C541   1.273       .  A
O530        C539   1.273       .  A
O531        C541   1.270       .  A
O532        C540   1.273       .  A
O533        C542   1.273       .  A
O534        C543   1.272   1_545  A
O535        C542   1.273       .  A
O536        C543   1.272       .  A
O537        C544   1.272       .  A
O538        C544   1.271       .  A
C539        C556   1.438       .  S
C540        C584   1.439       .  S
C541        C576   1.432       .  S
C542        C577   1.440       .  S
C543        C552   1.434       .  S
C544        C548   1.436       .  S
C545        C546   1.205       .  T
C546        C547   1.412       .  S
C547        C548   1.206       .  T
C549        C550   1.205       .  T
C550        C551   1.411       .  S
C551        C552   1.205       .  T
C553        C554   1.207       .  T
C554        C555   1.414       .  S
C555        C556   1.207       .  T
C557        H559   1.085       .  S
C557        C558   1.348       .  D
C558        H560   1.085       .  S
C561        C562   1.207       .  T
C562        C563   1.413       .  S
C563        C564   1.206       .  T
C565        C566   1.207       .  T
C566        C567   1.414       .  S
C567        C568   1.207       .  T
C569        C570   1.203       .  T
C570        C571   1.408       .  S
C571        C572   1.203       .  T
C573        C574   1.204       .  T
C574        C575   1.409       .  S
C575        C576   1.204       .  T
C577        C578   1.208       .  T
C578        C579   1.416       .  S
C579        C580   1.208       .  T
C581        C582   1.208       .  T
C582        C583   1.415       .  S
C583        C584   1.208       .  T
C585        H587   1.085       .  S
C585        C586   1.348       .  D
C586        H588   1.084       .  S
C589        C590   1.206       .  T
C590        C591   1.412       .  S
C591        C592   1.206       .  T
C593        C594   1.206       .  T
C594        C595   1.412       .  S
C595        C596   1.206       .  T
C597        C598   1.207       .  T
C598        C599   1.414       .  S
C599        C600   1.207       .  T
