geometry optimzed in LAMMPS
_audit_creation_date              2020-12-01 
_audit_creation_method            'lammps2cif' 
_symmetry_space_group_name_H-M    'P1' 
_symmetry_Int_Tables_number       1 
_symmetry_cell_setting            triclinic 
loop_ 
_symmetry_equiv_pos_as_xyz 
  x,y,z 
_cell_length_a                    27.6361908 
_cell_length_b                    27.679077104542845 
_cell_length_c                    27.57407577664603 
_cell_angle_alpha                 90.03269727949002 
_cell_angle_beta                  90.04539919055898 
_cell_angle_gamma                 90.00241281648682 
loop_ 
_atom_site_label 
_atom_site_type_symbol 
_atom_site_fract_x 
_atom_site_fract_y 
_atom_site_fract_z 
_atom_site_charge 
C1          C  0.21484014  0.57863525  0.28348618     0.03300
C2          C  0.21804739  0.62938378  0.28501146    -0.12800
C3          C  0.25022788  0.65414146  0.25449972     0.00800
C4          C  0.28154237  0.62792105  0.22430615    -0.11400
C5          C  0.28057704  0.57716626  0.22426748     0.03300
C6          C  0.24645135  0.55295421  0.25298365    -0.10800
H7          H  0.19612403  0.64979075  0.31021417     0.08900
H8          H  0.30637330  0.64699053  0.20071498     0.06400
H9          H  0.24483831  0.51384040  0.25185135     0.06300
C10         C  0.28285665  0.78411931  0.28286013     0.03300
C11         C  0.28239001  0.73334999  0.28368387    -0.12800
C12         C  0.25060978  0.70750563  0.25369099     0.00800
C13         C  0.21913836  0.73269431  0.22272561    -0.11400
C14         C  0.21952190  0.78349505  0.22133321     0.03300
C15         C  0.25202546  0.80889378  0.25097597    -0.10800
H16         H  0.30657732  0.71399333  0.30778374     0.08900
H17         H  0.19453418  0.71275722  0.19952748     0.06400
H18         H  0.25408320  0.84788409  0.24851068     0.06300
Zn19       Zn  0.45995359  0.96717859  0.46140762     1.49700
Zn20       Zn  0.48918038  0.85756591  0.49017048     1.49400
Zn21       Zn  0.56884286  0.93943568  0.49225435     1.49100
Zn22       Zn  0.48524545  0.93731720  0.57153955     1.49500
O23         O  0.50052255  0.92579357  0.50353147    -1.83900
O24         O  0.41867271  0.92504253  0.41724599    -0.74600
O25         O  0.54883177  0.82389612  0.46698610    -0.74400
O26         O  0.57600355  0.98716940  0.43834093    -0.73900
O27         O  0.44178911  0.85048523  0.43672259    -0.74600
O28         O  0.50162066  0.01033418  0.41819577    -0.74200
O29         O  0.60530762  0.88040785  0.46981558    -0.74800
O30         O  0.54227835  0.96582982  0.60706417    -0.74200
O31         O  0.46212054  0.82199804  0.54768208    -0.74900
O32         O  0.60047339  0.96809802  0.55183230    -0.74300
O33         O  0.46188345  0.87727691  0.60568824    -0.74800
O34         O  0.43124400  0.98479028  0.57688878    -0.74700
O35         O  0.41489568  0.00927715  0.50178154    -0.74500
C36         C  0.41668835  0.87937487  0.41135576     0.77300
C37         C  0.59215830  0.83740380  0.45994852     0.77800
C38         C  0.54740847  0.01261100  0.41279062     0.76800
C39         C  0.58517779  0.97695716  0.59454524     0.77100
C40         C  0.45332723  0.83442967  0.59117697     0.78300
C41         C  0.40724417  0.01063053  0.54736613     0.77300
C42         C  0.71613111  0.28394596  0.78357252     0.03300
C43         C  0.74651354  0.30828354  0.75101518    -0.12800
C44         C  0.77768343  0.28233684  0.72055006     0.00800
C45         C  0.77806417  0.23172489  0.72213737    -0.11400
C46         C  0.74832109  0.20700183  0.75485096     0.03300
C47         C  0.71805877  0.23315630  0.78613735    -0.10800
H48         H  0.74524988  0.34735617  0.74867472     0.08900
H49         H  0.80155530  0.21161184  0.69797589     0.06400
H50         H  0.69513926  0.21399547  0.81154838     0.06300
C51         C  0.78096684  0.07767418  0.78445057     0.03300
C52         C  0.74922518  0.05248503  0.75393479    -0.12800
C53         C  0.71725717  0.07752202  0.72349966     0.00800
C54         C  0.71632362  0.12826339  0.72477637    -0.11400
C55         C  0.74807393  0.15377537  0.75519293     0.03300
C56         C  0.78066733  0.12838142  0.78463791    -0.10800
H57         H  0.74904921  0.01333248  0.75433981     0.08900
H58         H  0.69144474  0.14788712  0.70159541     0.06400
H59         H  0.80574538  0.14801522  0.80758637     0.06300
C60         C  0.64927435  0.13540675  0.27736208     0.03300
C61         C  0.70021447  0.13610602  0.27950139    -0.12800
C62         C  0.72683189  0.16664048  0.24889012     0.00800
C63         C  0.70235578  0.19789684  0.21716946    -0.11400
C64         C  0.65160722  0.19878449  0.21613702     0.03300
C65         C  0.62533421  0.16724097  0.24584533    -0.10800
H66         H  0.71911185  0.11253455  0.30453508     0.08900
H67         H  0.72273667  0.22192252  0.19383485     0.06400
H68         H  0.58613970  0.16742002  0.24426897     0.06300
C69         C  0.85602135  0.20039765  0.27967621     0.03300
C70         C  0.88160951  0.17173492  0.24650997    -0.12800
C71         C  0.85701955  0.14057479  0.21483224     0.00800
C72         C  0.80623911  0.13779421  0.21690942    -0.11400
C73         C  0.78025755  0.16635553  0.24988790     0.03300
C74         C  0.80531900  0.19671514  0.28192873    -0.10800
H75         H  0.92069565  0.17446305  0.24459895     0.08900
H76         H  0.78690558  0.11341994  0.19303963     0.06400
H77         H  0.78525444  0.21797795  0.30806103     0.06300
Zn78       Zn  0.00944849  0.49161911  0.48731064     1.49700
Zn79       Zn  0.92999583  0.40982965  0.48217029     1.49400
Zn80       Zn  0.04045900  0.38277042  0.45613552     1.49100
Zn81       Zn  0.00819492  0.40886182  0.56552035     1.49500
O82         O  0.99751278  0.42284427  0.49723553    -1.83900
O83         O  0.94975231  0.52741246  0.46506412    -0.74600
O84         O  0.92490937  0.36003119  0.43041859    -0.74400
O85         O  0.08296093  0.42674672  0.41375967    -0.73900
O86         O  0.89600858  0.46878669  0.45745841    -0.74600
O87         O  0.05763772  0.50021553  0.43456087    -0.74200
O88         O  0.00024934  0.33788789  0.41269954    -0.74800
O89         O  0.05795273  0.35807391  0.57262757    -0.74200
O90         O  0.89364552  0.38389182  0.53955551    -0.74900
O91         O  0.08397839  0.34044770  0.49836023    -0.74300
O92         O  0.94815808  0.38432547  0.59831903    -0.74800
O93         O  0.03597398  0.46544074  0.60167117    -0.74700
O94         O  0.03878198  0.52316602  0.54653015    -0.74500
C95         C  0.90787057  0.51283066  0.45239749     0.77300
C96         C  0.95457474  0.33405194  0.40678991     0.77800
C97         C  0.08451933  0.47270672  0.40937396     0.76800
C98         C  0.08584402  0.33514616  0.54428595     0.77100
C99         C  0.90557992  0.37517147  0.58319624     0.78300
C100        C  0.04771672  0.50804112  0.58924605     0.77300
C101        C  0.35670338  0.63941992  0.78312896     0.03300
C102        C  0.38135318  0.67135401  0.75221918    -0.12800
C103        C  0.35553394  0.70272188  0.72171695     0.00800
C104        C  0.30480334  0.70099140  0.72115113    -0.11400
C105        C  0.27991561  0.67001597  0.75250163     0.03300
C106        C  0.30582489  0.63999962  0.78405478    -0.10800
H107        H  0.42056727  0.67178841  0.75182689     0.08900
H108        H  0.28466612  0.72375489  0.69635369     0.06400
H109        H  0.28639829  0.61641249  0.80862741     0.06300
C110        C  0.14937573  0.69817263  0.78165513     0.03300
C111        C  0.12533595  0.66717614  0.74946749    -0.12800
C112        C  0.15173762  0.63682583  0.71859990     0.00800
C113        C  0.20246130  0.63755526  0.71988427    -0.11400
C114        C  0.22672871  0.66868954  0.75180401     0.03300
C115        C  0.20014745  0.69904907  0.78251872    -0.10800
H116        H  0.08610919  0.66659170  0.74850928     0.08900
H117        H  0.22294642  0.61405518  0.69606848     0.06400
H118        H  0.21891740  0.72351253  0.80681638     0.06300
Zn119      Zn  0.01469340  0.85413593  0.00944385     1.49700
Zn120      Zn  0.01435565  0.93351189  0.92728594     1.49400
Zn121      Zn  0.93452244  0.93622914  0.00907770     1.49100
Zn122      Zn  0.04427126  0.96385824  0.03668889     1.49500
O123        O  0.00237085  0.92229300  0.99607443    -1.83900
O124        O  0.03934508  0.81873241  0.95079161    -0.74600
O125        O  0.95630884  0.96169682  0.89339955    -0.74400
O126        O  0.89952980  0.87765175  0.03432444    -0.73900
O127        O  0.03691327  0.87368518  0.89274241    -0.74600
O128        O  0.95528851  0.82027147  0.03484621    -0.74200
O129        O  0.90015558  0.96219579  0.95049798    -0.74800
O130        O  0.00361187  0.00813218  0.07981990    -0.74200
O131        O  0.06745462  0.98122146  0.91920166    -0.74900
O132        O  0.92847321  0.98814436  0.05885182    -0.74300
O133        O  0.08743653  0.00563832  0.99344764    -0.74800
O134        O  0.08753258  0.92236808  0.08014404    -0.74700
O135        O  0.06645973  0.84755003  0.05932831    -0.74500
C136        C  0.04667392  0.83112144  0.90696537     0.77300
C137        C  0.91360439  0.97155326  0.90738847     0.77800
C138        C  0.91217762  0.83434036  0.04312109     0.76800
C139        C  0.95789563  0.01329860  0.08369823     0.77100
C140        C  0.09280333  0.00713911  0.94747869     0.78300
C141        C  0.09216603  0.87663828  0.08397494     0.77300
C142        C  0.27759987  0.14280389  0.64291757     0.03300
C143        C  0.27768849  0.14286942  0.69390199    -0.12800
C144        C  0.24669822  0.17377856  0.71966621     0.00800
C145        C  0.21465443  0.20380087  0.69414435    -0.11400
C146        C  0.21360247  0.20314525  0.64310325     0.03300
C147        C  0.24565450  0.17307551  0.61792103    -0.10800
H148        H  0.30216588  0.11927957  0.71345774     0.08900
H149        H  0.19051880  0.22752662  0.71395084     0.06400
H150        H  0.24593444  0.17333068  0.57866841     0.06300
C151        C  0.28106963  0.20546490  0.84901825     0.03300
C152        C  0.27848576  0.20641763  0.79810704    -0.12800
C153        C  0.24773388  0.17443595  0.77324821     0.00800
C154        C  0.21847990  0.14243500  0.79962943    -0.11400
C155        C  0.21987353  0.14199291  0.85062328     0.03300
C156        C  0.25193382  0.17299775  0.87490129    -0.10800
H157        H  0.30096664  0.23136238  0.77787606     0.08900
H158        H  0.19448466  0.11802096  0.78045064     0.06400
H159        H  0.25454805  0.17173045  0.91404863     0.06300
Zn160      Zn  0.42977742  0.43696523  0.99432178     1.49700
Zn161      Zn  0.50939572  0.35649126  0.98955948     1.49400
Zn162      Zn  0.54010259  0.46708143  0.96775369     1.49100
Zn163      Zn  0.51136804  0.43352997  0.07588460     1.49500
O164        O  0.49807585  0.42393899  0.00673107    -1.83900
O165        O  0.39365701  0.37975495  0.96656343    -0.74600
O166        O  0.55919377  0.35235750  0.93769563    -0.74400
O167        O  0.49864137  0.51074422  0.92516301    -0.73900
O168        O  0.45013949  0.32343898  0.96183682    -0.74600
O169        O  0.42378135  0.48771801  0.94380140    -0.74200
O170        O  0.58448575  0.42727004  0.92352132    -0.74800
O171        O  0.56313503  0.48359879  0.08501397    -0.74200
O172        O  0.53661968  0.31941733  0.04613402    -0.74900
O173        O  0.58205675  0.50972825  0.01119688    -0.74300
O174        O  0.53826614  0.37249901  0.10622327    -0.74800
O175        O  0.45200774  0.45886130  0.11172592    -0.74700
O176        O  0.39633454  0.46219678  0.05390065    -0.74500
C177        C  0.40702027  0.33765192  0.95383438     0.77300
C178        C  0.58643911  0.38188988  0.91540968     0.77800
C179        C  0.45291145  0.51375463  0.91960927     0.76800
C180        C  0.58747239  0.51090633  0.05712969     0.77100
C181        C  0.54763747  0.33051272  0.08954921     0.78300
C182        C  0.40931737  0.46952606  0.09756512     0.77300
C183        C  0.72358185  0.71328353  0.35454948     0.03300
C184        C  0.72267298  0.71344722  0.30360521    -0.12800
C185        C  0.75279545  0.68208926  0.27737625     0.00800
C186        C  0.78401419  0.65079697  0.30232829    -0.11400
C187        C  0.78504284  0.65065728  0.35321476     0.03300
C188        C  0.75444399  0.68156589  0.37909433    -0.10800
H189        H  0.69816872  0.73738035  0.28449509     0.08900
H190        H  0.80712306  0.62627819  0.28221111     0.06400
H191        H  0.75444008  0.68074411  0.41840686     0.06300
C192        C  0.71660488  0.64741750  0.14955720     0.03300
C193        C  0.74906540  0.67543263  0.12236883    -0.12800
C194        C  0.78193583  0.70630190  0.14559753     0.00800
C195        C  0.78252646  0.70904438  0.19643077    -0.11400
C196        C  0.75071119  0.68076331  0.22397265     0.03300
C197        C  0.71784168  0.65000289  0.20045556    -0.10800
H198        H  0.74943817  0.67259054  0.08317771     0.08900
H199        H  0.80782036  0.73299049  0.21449884     0.06400
H200        H  0.69345862  0.62787363  0.22175069     0.06300
C201        C  0.61717643  0.59465039  0.06954240    -0.20100
C202        C  0.62216342  0.54515049  0.07923393    -0.06700
C203        C  0.65830983  0.52946680  0.11199543     0.14200
C204        C  0.68852229  0.56370307  0.13427645    -0.20200
C205        C  0.68335130  0.61323517  0.12490400    -0.06700
C206        C  0.64690037  0.62900320  0.09251073     0.14200
C207        C  0.63772496  0.68198924  0.08383294    -0.23500
H208        H  0.58888308  0.60654777  0.04505815     0.15500
H209        H  0.71655849  0.55179014  0.15905635     0.15500
C210        C  0.66600600  0.47658540  0.12260330    -0.23500
H211        H  0.60600005  0.68783608  0.05979037     0.05700
H212        H  0.66948944  0.69897694  0.06623461     0.08900
H213        H  0.63042307  0.70034175  0.11889515     0.08900
H214        H  0.67317146  0.45682862  0.08829199     0.08900
H215        H  0.63351457  0.46118319  0.14042739     0.08900
H216        H  0.69728637  0.47070809  0.14722790     0.05700
C217        C  0.30385932  0.28849418  0.87463144    -0.20100
C218        C  0.31367245  0.23884275  0.87563051    -0.06700
C219        C  0.35371016  0.22181445  0.90244938     0.14200
C220        C  0.38257595  0.25480352  0.92821097    -0.20200
C221        C  0.37273186  0.30470351  0.92797327    -0.06700
C222        C  0.33272011  0.32172844  0.90030126     0.14200
C223        C  0.32068515  0.37473062  0.89610120    -0.23500
H224        H  0.27318670  0.30125563  0.85371739     0.15500
H225        H  0.41329265  0.24136847  0.94857672     0.15500
C226        C  0.36709494  0.16900824  0.90271289    -0.23500
H227        H  0.28969156  0.38115296  0.87124686     0.05700
H228        H  0.35226761  0.39479927  0.88149361     0.08900
H229        H  0.31048176  0.38939087  0.93213685     0.08900
H230        H  0.37282210  0.15629947  0.86494804     0.08900
H231        H  0.33796229  0.14738718  0.91978353     0.08900
H232        H  0.40090559  0.16231505  0.92344359     0.05700
C233        C  0.89551823  0.75883693  0.08919188    -0.20100
C234        C  0.87706926  0.80000416  0.06547278    -0.06700
C235        C  0.82619627  0.80779330  0.06548917     0.14200
C236        C  0.79606225  0.77573649  0.09091618    -0.20200
C237        C  0.81514873  0.73651523  0.11659559    -0.06700
C238        C  0.86522582  0.72717742  0.11479209     0.14200
C239        C  0.88665871  0.68360165  0.13954103    -0.23500
H240        H  0.93410143  0.75192308  0.08893430     0.15500
H241        H  0.75732918  0.78192604  0.09183640     0.15500
C242        C  0.80286199  0.84929464  0.03883760    -0.23500
H243        H  0.92627204  0.68089768  0.13333516     0.05700
H244        H  0.86946987  0.65025062  0.12521259     0.08900
H245        H  0.88050937  0.68577312  0.17923536     0.08900
H246        H  0.81369244  0.84858197  0.00007176     0.08900
H247        H  0.81356463  0.88413684  0.05562412     0.08900
H248        H  0.76274069  0.84733472  0.04024666     0.05700
C249        C  0.12593668  0.08960131  0.93733512    -0.20100
C250        C  0.12833523  0.04042085  0.92556140    -0.06700
C251        C  0.16185298  0.02453902  0.89021409     0.14200
C252        C  0.19202607  0.05839732  0.86744140    -0.20200
C253        C  0.18889804  0.10785360  0.87826999    -0.06700
C254        C  0.15518207  0.12370894  0.91358059     0.14200
C255        C  0.14759905  0.17660091  0.92434014    -0.23500
H256        H  0.09953610  0.10161045  0.96378891     0.15500
H257        H  0.21788171  0.04631231  0.84048621     0.15500
C258        C  0.16641988  0.97188212  0.87679415    -0.23500
H259        H  0.11673354  0.18239865  0.94945455     0.05700
H260        H  0.13967739  0.19636241  0.89021485     0.08900
H261        H  0.18008264  0.19224807  0.94185803     0.08900
H262        H  0.13253515  0.95892252  0.85954934     0.08900
H263        H  0.17398054  0.95014294  0.90977050     0.08900
H264        H  0.19631486  0.96568744  0.85061547     0.05700
C265        C  0.09412586  0.75606114  0.89330703    -0.20100
C266        C  0.06955302  0.79587788  0.87310553    -0.06700
C267        C  0.06965666  0.80170628  0.82187422     0.14200
C268        C  0.09539722  0.76868834  0.79301297    -0.20200
C269        C  0.12130597  0.73042845  0.81373506    -0.06700
C270        C  0.11996943  0.72342483  0.86431487     0.14200
C271        C  0.14519101  0.68112068  0.88770425    -0.23500
H272        H  0.09417908  0.75087544  0.93225289     0.15500
H273        H  0.09614128  0.77320080  0.75396380     0.15500
C274        C  0.04269730  0.84202401  0.79686562    -0.23500
H275        H  0.13901252  0.68009908  0.92748777     0.05700
H276        H  0.18477452  0.68347150  0.88153044     0.08900
H277        H  0.13131708  0.64686699  0.87198116     0.08900
H278        H  0.05892571  0.87743193  0.80647388     0.08900
H279        H  0.00395777  0.84123518  0.80750172     0.08900
H280        H  0.04440010  0.83865300  0.75675925     0.05700
C281        C  0.41924252  0.62532668  0.84658121    -0.20100
C282        C  0.38401356  0.60605911  0.81517327    -0.06700
C283        C  0.37437162  0.55581666  0.81639948     0.14200
C284        C  0.39741316  0.52712020  0.85119187    -0.20200
C285        C  0.43203776  0.54642296  0.88292865    -0.06700
C286        C  0.44375627  0.59597272  0.88018807     0.14200
C287        C  0.48035606  0.61831373  0.91393567    -0.23500
H288        H  0.42678086  0.66374312  0.84556505     0.15500
H289        H  0.38901784  0.48885586  0.85283666     0.15500
C290        C  0.34150300  0.53066568  0.78069366    -0.23500
H291        H  0.48380484  0.65784582  0.90796009     0.05700
H292        H  0.51642811  0.60179503  0.90782194     0.08900
H293        H  0.46923519  0.61237710  0.95216103     0.08900
H294        H  0.32870424  0.55454936  0.75116582     0.08900
H295        H  0.30968808  0.51560655  0.80005619     0.08900
H296        H  0.36146670  0.50055081  0.76313254     0.05700
C297        C  0.11819848  0.25264804  0.55629923    -0.20100
C298        C  0.12120704  0.30212793  0.56641468    -0.06700
C299        C  0.15459351  0.31894230  0.60142040     0.14200
C300        C  0.18451681  0.28575952  0.62531011    -0.20200
C301        C  0.18114959  0.23608466  0.61593776    -0.06700
C302        C  0.14721748  0.21916915  0.58124324     0.14200
C303        C  0.13920980  0.16596479  0.57243679    -0.23500
H304        H  0.09161129  0.24004230  0.53027388     0.15500
H305        H  0.21058568  0.29860141  0.65174381     0.15500
C306        C  0.15907503  0.37195532  0.61337845    -0.23500
H307        H  0.10813371  0.15951236  0.54769625     0.05700
H308        H  0.13136214  0.14752563  0.60730449     0.08900
H309        H  0.17141658  0.14936773  0.55536197     0.08900
H310        H  0.12488123  0.38544465  0.62948436     0.08900
H311        H  0.16724306  0.39270240  0.57992089     0.08900
H312        H  0.18848622  0.37886982  0.63996779     0.05700
C313        C  0.80391024  0.56728880  0.37854505    -0.20100
C314        C  0.81611652  0.61627270  0.37967810    -0.06700
C315        C  0.85670670  0.63164209  0.40650915     0.14200
C316        C  0.88489119  0.59722987  0.43097013    -0.20200
C317        C  0.87348109  0.54761314  0.42947226    -0.06700
C318        C  0.83164587  0.53266253  0.40322570     0.14200
C319        C  0.81581654  0.48057732  0.39986598    -0.23500
H320        H  0.77224650  0.55616640  0.35815282     0.15500
H321        H  0.91645172  0.60930727  0.45090067     0.15500
C322        C  0.87111225  0.68414909  0.40821177    -0.23500
H323        H  0.78256973  0.47630046  0.37760365     0.05700
H324        H  0.80752048  0.46645723  0.43660943     0.08900
H325        H  0.84459872  0.45853709  0.38257132     0.08900
H326        H  0.84200397  0.70584606  0.42532259     0.08900
H327        H  0.87755725  0.69760161  0.37083994     0.08900
H328        H  0.90473118  0.68973555  0.42958644     0.05700
C329        C  0.09331952  0.58391017  0.60612064    -0.20100
C330        C  0.07380692  0.54034727  0.62404580    -0.06700
C331        C  0.08122680  0.52869134  0.67383334     0.14200
C332        C  0.10693279  0.56095504  0.70362366    -0.20200
C333        C  0.12597932  0.60400417  0.68525286    -0.06700
C334        C  0.11926129  0.61569284  0.63606003     0.14200
C335        C  0.13896523  0.66205744  0.61534999    -0.23500
H336        H  0.08858662  0.59328807  0.56828178     0.15500
H337        H  0.11242894  0.55256514  0.74163576     0.15500
C338        C  0.06235535  0.48285289  0.69656177    -0.23500
H339        H  0.13009741  0.66596905  0.57625479     0.05700
H340        H  0.17894385  0.66280046  0.61920936     0.08900
H341        H  0.12323043  0.69334094  0.63502481     0.08900
H342        H  0.07958944  0.45096813  0.67932692     0.08900
H343        H  0.02243253  0.48096680  0.69249460     0.08900
H344        H  0.07060398  0.48102817  0.73595588     0.05700
C345        C  0.90420349  0.08299953  0.09875124    -0.20100
C346        C  0.93726131  0.04925961  0.11734568    -0.06700
C347        C  0.94572247  0.04733662  0.16777216     0.14200
C348        C  0.91931313  0.07792237  0.19864672    -0.20200
C349        C  0.88487382  0.11045689  0.18020214    -0.06700
C350        C  0.87842811  0.11419094  0.12945781     0.14200
C351        C  0.84565762  0.15182445  0.10739286    -0.23500
H352        H  0.89825938  0.08461076  0.05990739     0.15500
H353        H  0.92474812  0.07573333  0.23752075     0.15500
C354        C  0.98092826  0.01169424  0.18919510    -0.23500
H355        H  0.84767311  0.15162092  0.06715928     0.05700
H356        H  0.85654010  0.18829031  0.12018969     0.08900
H357        H  0.80748412  0.14499825  0.11750138     0.08900
H358        H  0.01784776  0.01894274  0.17515270     0.08900
H359        H  0.97006486  0.97433525  0.17932129     0.08900
H360        H  0.98220164  0.01421316  0.22938017     0.05700
C361        C  0.89892693  0.31669213  0.33916297    -0.20100
C362        C  0.93406990  0.29943302  0.37153127    -0.06700
C363        C  0.94465123  0.24951410  0.37271352     0.14200
C364        C  0.91873875  0.21793948  0.34224478    -0.20200
C365        C  0.88252709  0.23518568  0.31084792    -0.06700
C366        C  0.87349146  0.28540748  0.30835667     0.14200
C367        C  0.83835542  0.30655620  0.27223043    -0.23500
H368        H  0.89114676  0.35508270  0.33822274     0.15500
H369        H  0.92609241  0.17949011  0.34351769     0.15500
C370        C  0.98156835  0.22927370  0.40740844    -0.23500
H371        H  0.83885261  0.34667586  0.27288101     0.05700
H372        H  0.80088631  0.29505817  0.28054706     0.08900
H373        H  0.84813543  0.29470617  0.23502824     0.08900
H374        H  0.97129237  0.23835820  0.44525613     0.08900
H375        H  0.01773959  0.24471958  0.39936403     0.08900
H376        H  0.98429265  0.18933814  0.40448153     0.05700
C377        C  0.62245220  0.22249058  0.13451883    -0.20100
C378        C  0.62556017  0.23278896  0.18407241    -0.06700
C379        C  0.60308999  0.27459140  0.20257645     0.14200
C380        C  0.57730138  0.30497600  0.17106225    -0.20200
C381        C  0.57341039  0.29485399  0.12111446    -0.06700
C382        C  0.59687754  0.25283693  0.10263756     0.14200
C383        C  0.59650066  0.23971899  0.04951443    -0.23500
H384        H  0.64012330  0.19030030  0.12078939     0.15500
H385        H  0.56026202  0.33704858  0.18574248     0.15500
C386        C  0.60713112  0.28761095  0.25550286    -0.23500
H387        H  0.61796039  0.20660271  0.04206997     0.05700
H388        H  0.61259317  0.26946640  0.02786123     0.08900
H389        H  0.55889503  0.23251706  0.03734081     0.08900
H390        H  0.64584476  0.29155114  0.26558861     0.08900
H391        H  0.59049172  0.25888936  0.27806519     0.08900
H392        H  0.58848491  0.32217513  0.26382790     0.05700
C393        C  0.85148027  0.02328152  0.79466755    -0.20100
C394        C  0.81448306  0.05054467  0.81607222    -0.06700
C395        C  0.80875196  0.04997295  0.86682996     0.14200
C396        C  0.84122285  0.02328659  0.89523580    -0.20200
C397        C  0.87934420  0.99675399  0.87425069    -0.06700
C398        C  0.88410605  0.99639125  0.82296222     0.14200
C399        C  0.92244705  0.96714979  0.79739797    -0.23500
H400        H  0.85490845  0.02329977  0.75549529     0.15500
H401        H  0.83699733  0.02374405  0.93429955     0.15500
C402        C  0.76760455  0.07640289  0.89101471    -0.23500
H403        H  0.91832441  0.96873056  0.75735549     0.05700
H404        H  0.91979551  0.92865973  0.80843308     0.08900
H405        H  0.95892279  0.98144083  0.80619309     0.08900
H406        H  0.73258287  0.06332054  0.87622863     0.08900
H407        H  0.77081909  0.11580727  0.88450231     0.08900
H408        H  0.76736276  0.07053516  0.93085598     0.05700
C409        C  0.70009219  0.34811121  0.84493831    -0.20100
C410        C  0.68188548  0.31168245  0.81432214    -0.06700
C411        C  0.63160836  0.30201423  0.81428075     0.14200
C412        C  0.60170912  0.32619471  0.84729216    -0.20200
C413        C  0.61994268  0.36163759  0.87880462    -0.06700
C414        C  0.66965087  0.37345011  0.87702171     0.14200
C415        C  0.69107637  0.41092645  0.91034186    -0.23500
H416        H  0.73853580  0.35589569  0.84457766     0.15500
H417        H  0.56341772  0.31759654  0.84806096     0.15500
C418        C  0.60775324  0.26762747  0.77914100    -0.23500
H419        H  0.73079702  0.41436042  0.90527578     0.05700
H420        H  0.68423717  0.40079342  0.94869053     0.08900
H421        H  0.67457942  0.44670732  0.90284157     0.08900
H422        H  0.59209334  0.23665710  0.79931908     0.08900
H423        H  0.63268191  0.25361712  0.75105778     0.08900
H424        H  0.57819207  0.28668984  0.75968372     0.05700
C425        C  0.79897708  0.30465909  0.63639468    -0.20100
C426        C  0.80921446  0.30802879  0.68599552    -0.06700
C427        C  0.84977538  0.33455139  0.70178191     0.14200
C428        C  0.87972546  0.35666132  0.66735792    -0.23000
C429        C  0.87007685  0.35328252  0.61732679    -0.06700
C430        C  0.82854570  0.32715956  0.60170878     0.14200
C431        C  0.81531128  0.32152354  0.54890963    -0.23500
H432        H  0.76760531  0.28411252  0.62484236     0.15500
H433        H  0.91113165  0.37657010  0.67980671     0.15500
C434        C  0.86228782  0.33846192  0.75485761    -0.23500
H435        H  0.78259267  0.29872010  0.54396346     0.05700
H436        H  0.84544215  0.30398027  0.52894233     0.08900
H437        H  0.80724815  0.35740013  0.53285370     0.08900
H438        H  0.86736395  0.30180750  0.77038956     0.08900
H439        H  0.83279846  0.35722329  0.77460637     0.08900
H440        H  0.89617367  0.35923959  0.76074625     0.05700
C441        C  0.37579814  0.09333395  0.55982029    -0.20100
C442        C  0.37054525  0.04358172  0.56748844    -0.06700
C443        C  0.33332901  0.02648792  0.59814878     0.14200
C444        C  0.30324771  0.05979002  0.62179027    -0.20200
C445        C  0.30957196  0.10965732  0.61560175    -0.06700
C446        C  0.34599277  0.12674012  0.58385373     0.14200
C447        C  0.35529734  0.17999790  0.57714152    -0.23500
H448        H  0.40469565  0.10612586  0.53656062     0.15500
H449        H  0.27476988  0.04692229  0.64552973     0.15500
C450        C  0.32477212  0.97316401  0.60538911    -0.23500
H451        H  0.38730193  0.18664552  0.55373547     0.05700
H452        H  0.36218125  0.19718260  0.61287938     0.08900
H453        H  0.32383083  0.19759763  0.55958837     0.08900
H454        H  0.35656315  0.95627238  0.62316649     0.08900
H455        H  0.31835541  0.95556771  0.56975650     0.08900
H456        H  0.29273321  0.96626367  0.62868099     0.05700
C457        C  0.66713346  0.82401382  0.41227471    -0.20100
C458        C  0.62723137  0.80380865  0.43670046    -0.06700
C459        C  0.62071627  0.75287047  0.43552813     0.14200
C460        C  0.65303041  0.72433592  0.40861925    -0.20200
C461        C  0.69127339  0.74513155  0.38269240    -0.06700
C462        C  0.69916878  0.79531139  0.38539686     0.14200
C463        C  0.74184651  0.81847881  0.36060610    -0.23500
H464        H  0.67279762  0.86274190  0.41313388     0.15500
H465        H  0.64811243  0.68549450  0.40715807     0.15500
C466        C  0.58052792  0.72785315  0.46273246    -0.23500
H467        H  0.74343458  0.85797294  0.36758150     0.05700
H468        H  0.73936705  0.81299272  0.32082520     0.08900
H469        H  0.77592476  0.80208391  0.37421853     0.08900
H470        H  0.54490281  0.73767275  0.44700110     0.08900
H471        H  0.58181036  0.73808831  0.50165973     0.08900
H472        H  0.58371902  0.68790300  0.46054643     0.05700
C473        C  0.60417427  0.02401793  0.34473234    -0.20100
C474        C  0.56903959  0.04417715  0.37536813    -0.06700
C475        C  0.55833618  0.09392113  0.37171919     0.14200
C476        C  0.58455699  0.12257025  0.33880959    -0.20200
C477        C  0.62071696  0.10257204  0.30898691    -0.06700
C478        C  0.62923995  0.05215057  0.31079364     0.14200
C479        C  0.66323763  0.02630963  0.27675732    -0.23500
H480        H  0.61179213  0.98562405  0.34693713     0.15500
H481        H  0.57766365  0.16109752  0.33721012     0.15500
C482        C  0.52108456  0.11727923  0.40395672    -0.23500
H483        H  0.64350271  0.99665112  0.25815590     0.05700
H484        H  0.69371930  0.01055803  0.29770229     0.08900
H485        H  0.67804986  0.04991373  0.24798688     0.08900
H486        H  0.53087109  0.11159469  0.44259880     0.08900
H487        H  0.48494548  0.10130420  0.39679400     0.08900
H488        H  0.51853304  0.15680010  0.39745028     0.05700
C489        C  0.40149907  0.81787219  0.66272080    -0.20100
C490        C  0.43062388  0.79942764  0.62520024    -0.06700
C491        C  0.43616645  0.74861278  0.62081970     0.14200
C492        C  0.41180995  0.71806384  0.65337257    -0.20200
C493        C  0.38161281  0.73673928  0.68963970    -0.06700
C494        C  0.37689594  0.78726402  0.69484790     0.14200
C495        C  0.34694415  0.80914126  0.73496057    -0.23500
H496        H  0.39713364  0.85661044  0.66646664     0.15500
H497        H  0.41564135  0.67921963  0.65004780     0.15500
C498        C  0.46815539  0.72603652  0.58274320    -0.23500
H499        H  0.34949275  0.84918714  0.73525475     0.05700
H500        H  0.35986919  0.79566683  0.77061010     0.08900
H501        H  0.30826885  0.79959631  0.73028594     0.08900
H502        H  0.50534968  0.74096432  0.58555041     0.08900
H503        H  0.45325852  0.73307883  0.54604698     0.08900
H504        H  0.47061278  0.68621731  0.58709067     0.05700
C505        C  0.66831683  0.99741325  0.62257947    -0.20100
C506        C  0.61806580  0.00138760  0.62973962    -0.06700
C507        C  0.60083137  0.03059744  0.66847635     0.14200
C508        C  0.63415858  0.05484650  0.69833531    -0.20200
C509        C  0.68411857  0.05057670  0.69101121    -0.06700
C510        C  0.70147999  0.02149914  0.65267550     0.14200
C511        C  0.75485939  0.01715404  0.64219125    -0.23500
H512        H  0.68186662  0.97540854  0.59304678     0.15500
H513        H  0.62120483  0.07737816  0.72776313     0.15500
C514        C  0.54759695  0.03791172  0.67806241    -0.23500
H515        H  0.76182558  0.99521407  0.60918958     0.05700
H516        H  0.77367905  0.99933211  0.67285859     0.08900
H517        H  0.77057866  0.05360019  0.63632549     0.08900
H518        H  0.53058942  0.00311556  0.68848142     0.08900
H519        H  0.52966672  0.05269992  0.64521529     0.08900
H520        H  0.54120491  0.06372849  0.70824272     0.05700
C521        C  0.12279771  0.86615489  0.16766632    -0.20100
C522        C  0.12757953  0.85592716  0.11816883    -0.06700
C523        C  0.16318880  0.82268063  0.10260373     0.14200
C524        C  0.19310649  0.80034059  0.13707825    -0.20200
C525        C  0.18783943  0.80980127  0.18677035    -0.06700
C526        C  0.15199110  0.84295277  0.20228804     0.14200
C527        C  0.14279218  0.85243341  0.25522403    -0.23500
H528        H  0.09483422  0.89102831  0.17938096     0.15500
H529        H  0.22058276  0.77498327  0.12526999     0.15500
C530        C  0.17013690  0.81110395  0.04961565    -0.23500
H531        H  0.11049920  0.87566731  0.26080340     0.05700
H532        H  0.17410176  0.87152917  0.27110597     0.08900
H533        H  0.13663176  0.81782616  0.27461309     0.08900
H534        H  0.17760766  0.84483011  0.02916363     0.08900
H535        H  0.13719957  0.79358924  0.03474767     0.08900
H536        H  0.20094783  0.78599459  0.04380521     0.05700
C537        C  0.36660662  0.80367214  0.30853378    -0.20100
C538        C  0.31675346  0.81119661  0.31439133    -0.06700
C539        C  0.30022853  0.84292004  0.35109727     0.14200
C540        C  0.33398809  0.86680210  0.38055887    -0.20200
C541        C  0.38361308  0.85848555  0.37526834    -0.06700
C542        C  0.40029886  0.82665071  0.33884000     0.14200
C543        C  0.45355596  0.81726252  0.33155611    -0.23500
H544        H  0.37911613  0.77926995  0.28044417     0.15500
H545        H  0.32154656  0.89054507  0.40925325     0.15500
C546        C  0.24715817  0.84997710  0.36101656    -0.23500
H547        H  0.46021507  0.79304194  0.30012972     0.05700
H548        H  0.46912287  0.79967639  0.36417791     0.08900
H549        H  0.47264791  0.85190280  0.32477544     0.08900
H550        H  0.22943294  0.81448018  0.36701554     0.08900
H551        H  0.23009245  0.86860693  0.33002888     0.08900
H552        H  0.24093976  0.87261518  0.39369691     0.05700
C553        C  0.29440742  0.51951122  0.15673224    -0.20100
C554        C  0.31405210  0.54889777  0.19315944    -0.06700
C555        C  0.36464313  0.54918345  0.20048908     0.14200
C556        C  0.39445659  0.52161601  0.16980757    -0.20200
C557        C  0.37512195  0.49371915  0.13172066    -0.06700
C558        C  0.32405303  0.49204170  0.12583899     0.14200
C559        C  0.30005343  0.46086519  0.08792105    -0.23500
H560        H  0.25545531  0.51860901  0.15206468     0.15500
H561        H  0.43331568  0.52288103  0.17496423     0.15500
C562        C  0.38724182  0.57758035  0.24131468    -0.23500
H563        H  0.26002597  0.46106887  0.09158161     0.05700
H564        H  0.31247414  0.42290308  0.09172848     0.08900
H565        H  0.30857203  0.47448311  0.05108063     0.08900
H566        H  0.37136759  0.56605888  0.27643599     0.08900
H567        H  0.38081554  0.61676961  0.23607740     0.08900
H568        H  0.42698311  0.57189440  0.24322001     0.05700
C569        C  0.09978480  0.53428437  0.34626342    -0.20100
C570        C  0.11785916  0.49615227  0.37455569    -0.06700
C571        C  0.16764096  0.48498333  0.37243087     0.14200
C572        C  0.19818344  0.51292200  0.34287845    -0.20200
C573        C  0.18030463  0.55159043  0.31495211    -0.06700
C574        C  0.13003305  0.56173263  0.31602720     0.14200
C575        C  0.10732909  0.59985090  0.28418262    -0.23500
H576        H  0.06149433  0.54268376  0.34792050     0.15500
H577        H  0.23655446  0.50488034  0.34200423     0.15500
C578        C  0.18908155  0.44503159  0.40266906    -0.23500
H579        H  0.06718954  0.59872573  0.28600980     0.05700
H580        H  0.11796604  0.59393348  0.24582360     0.08900
H581        H  0.11839602  0.63645885  0.29592382     0.08900
H582        H  0.17298967  0.40986747  0.39197551     0.08900
H583        H  0.18180877  0.45188750  0.44167071     0.08900
H584        H  0.22887902  0.44232978  0.39775878     0.05700
loop_ 
_geom_bond_atom_site_label_1 
_geom_bond_atom_site_label_2 
_geom_bond_distance 
_geom_bond_site_symmetry_2 
_ccdc_geom_bond_type 
C1            C2   1.408       .  A
C1            C6   1.406       .  A
C1          C573   1.492       .  S
C2            C3   1.404       .  A
C2            H7   1.081       .  S
C3            C4   1.403       .  A
C3           C12   1.477       .  S
C4            C5   1.405       .  A
C4            H8   1.083       .  S
C5            C6   1.403       .  A
C5          C554   1.485       .  S
C6            H9   1.084       .  S
C10          C11   1.406       .  A
C10          C15   1.403       .  A
C10         C538   1.481       .  S
C11          C12   1.402       .  A
C11          H16   1.084       .  S
C12          C13   1.404       .  A
C13          C14   1.407       .  A
C13          H17   1.084       .  S
C14          C15   1.403       .  A
C14         C525   1.485       .  S
C15          H18   1.083       .  S
Zn19         O23   1.979       .  S
Zn19         O24   2.035       .  S
Zn19         O28   2.044   1_565  S
Zn19         O35   2.037   1_565  S
Zn20         O23   1.949       .  S
Zn20         O25   1.999       .  S
Zn20         O27   1.980       .  S
Zn20         O31   2.012       .  S
Zn21         O23   1.951       .  S
Zn21         O26   1.999       .  S
Zn21         O29   2.017       .  S
Zn21         O32   2.022       .  S
Zn22         O23   1.949       .  S
Zn22         O30   2.016       .  S
Zn22         O33   2.017       .  S
Zn22         O34   1.994       .  S
O24          C36   1.276       .  A
O25          C37   1.269       .  A
O26          C38   1.271   1_565  A
O27          C36   1.269       .  A
O28          C38   1.276       .  A
O29          C37   1.274       .  A
O30          C39   1.273       .  A
O31          C40   1.271       .  A
O32          C39   1.275       .  A
O33          C40   1.274       .  A
O34          C41   1.270   1_565  A
O35          C41   1.275       .  A
C36         C541   1.469       .  S
C37         C458   1.488       .  S
C38         C474   1.479       .  S
C39         C506   1.491   1_565  S
C40         C490   1.488       .  S
C41         C442   1.473       .  S
C42          C43   1.402       .  A
C42          C47   1.409       .  A
C42         C410   1.485       .  S
C43          C44   1.401       .  A
C43          H48   1.084       .  S
C44          C45   1.402       .  A
C44         C426   1.475       .  S
C45          C46   1.400       .  A
C45          H49   1.084       .  S
C46          C47   1.403       .  A
C46          C55   1.473       .  S
C47          H50   1.084       .  S
C51          C52   1.401       .  A
C51          C56   1.404       .  A
C51         C394   1.477       .  S
C52          C53   1.402       .  A
C52          H57   1.084       .  S
C53          C54   1.405       .  A
C53         C509   1.482       .  S
C54          C55   1.404       .  A
C54          H58   1.084       .  S
C55          C56   1.401       .  A
C56          H59   1.084       .  S
C60          C61   1.409       .  A
C60          C65   1.403       .  A
C60         C477   1.487       .  S
C61          C62   1.403       .  A
C61          H66   1.084       .  S
C62          C63   1.404       .  A
C62          C73   1.477       .  S
C63          C64   1.403       .  A
C63          H67   1.084       .  S
C64          C65   1.401       .  A
C64         C378   1.478       .  S
C65          H68   1.084       .  S
C69          C70   1.402       .  A
C69          C74   1.406       .  A
C69         C365   1.483       .  S
C70          C71   1.402       .  A
C70          H75   1.084       .  S
C71          C72   1.407       .  A
C71         C349   1.483       .  S
C72          C73   1.403       .  A
C72          H76   1.083       .  S
C73          C74   1.402       .  A
C74          H77   1.083       .  S
Zn78         O82   1.951   1_455  S
Zn78         O83   2.020   1_455  S
Zn78         O87   1.987       .  S
Zn78         O94   2.020       .  S
Zn79         O82   1.945       .  S
Zn79         O84   1.988       .  S
Zn79         O86   2.002       .  S
Zn79         O90   2.008       .  S
Zn80         O82   1.981   1_455  S
Zn80         O85   2.057       .  S
Zn80         O88   2.052       .  S
Zn80         O91   2.043       .  S
Zn81         O82   1.945   1_455  S
Zn81         O89   1.976       .  S
Zn81         O92   2.009   1_455  S
Zn81         O93   2.008       .  S
O83          C95   1.274       .  A
O84          C96   1.270       .  A
O85          C97   1.279       .  A
O86          C95   1.270       .  A
O87          C97   1.271       .  A
O88          C96   1.277   1_455  A
O89          C98   1.268       .  A
O90          C99   1.271       .  A
O91          C98   1.276       .  A
O92          C99   1.273       .  A
O93         C100   1.270       .  A
O94         C100   1.274       .  A
C95         C317   1.493       .  S
C96         C362   1.477       .  S
C97         C570   1.481       .  S
C98         C298   1.471       .  S
C99         C429   1.489       .  S
C100        C330   1.496       .  S
C101        C102   1.405       .  A
C101        C106   1.406       .  A
C101        C282   1.484       .  S
C102        C103   1.404       .  A
C102        H107   1.084       .  S
C103        C104   1.403       .  A
C103        C493   1.480       .  S
C104        C105   1.399       .  A
C104        H108   1.084       .  S
C105        C106   1.400       .  A
C105        C114   1.470       .  S
C106        H109   1.084       .  S
C110        C111   1.401       .  A
C110        C115   1.404       .  A
C110        C269   1.477       .  S
C111        C112   1.401       .  A
C111        H116   1.084       .  S
C112        C113   1.402       .  A
C112        C333   1.475       .  S
C113        C114   1.402       .  A
C113        H117   1.084       .  S
C114        C115   1.401       .  A
C115        H118   1.084       .  S
Zn119       O123   1.952   1_554  S
Zn119       O124   2.010   1_554  S
Zn119       O128   2.017   1_455  S
Zn119       O135   1.992       .  S
Zn120       O123   1.951       .  S
Zn120       O125   2.013   1_455  S
Zn120       O127   2.009       .  S
Zn120       O131   1.987       .  S
Zn121       O123   1.948   1_654  S
Zn121       O126   2.013       .  S
Zn121       O129   2.007   1_554  S
Zn121       O132   1.994       .  S
Zn122       O123   1.979   1_554  S
Zn122       O130   2.044   1_565  S
Zn122       O133   2.046   1_564  S
Zn122       O134   2.045       .  S
O124        C136   1.273       .  A
O125        C137   1.271       .  A
O126        C138   1.272       .  A
O127        C136   1.271       .  A
O128        C138   1.274       .  A
O129        C137   1.273       .  A
O130        C139   1.276   1_455  A
O131        C140   1.270   1_565  A
O132        C139   1.270   1_565  A
O133        C140   1.277       .  A
O134        C141   1.277       .  A
O135        C141   1.270       .  A
C136        C266   1.491       .  S
C137        C397   1.489       .  S
C138        C234   1.492       .  S
C139        C346   1.475       .  S
C140        C250   1.476       .  S
C141        C522   1.475       .  S
C142        C143   1.406       .  A
C142        C147   1.399       .  A
C142        C445   1.480       .  S
C143        C144   1.404       .  A
C143        H148   1.084       .  S
C144        C145   1.403       .  A
C144        C153   1.478       .  S
C145        C146   1.408       .  A
C145        H149   1.084       .  S
C146        C147   1.400       .  A
C146        C301   1.482       .  S
C147        H150   1.082       .  S
C151        C152   1.406       .  A
C151        C156   1.402       .  A
C151        C218   1.484       .  S
C152        C153   1.405       .  A
C152        H157   1.084       .  S
C153        C154   1.403       .  A
C154        C155   1.407       .  A
C154        H158   1.084       .  S
C155        C156   1.403       .  A
C155        C253   1.486       .  S
C156        H159   1.082       .  S
Zn160       O164   1.952   1_556  S
Zn160       O165   2.022       .  S
Zn160       O169   1.986       .  S
Zn160       O176   2.010   1_556  S
Zn161       O164   1.951   1_556  S
Zn161       O166   1.989       .  S
Zn161       O168   2.025       .  S
Zn161       O172   2.013   1_556  S
Zn162       O164   1.983   1_556  S
Zn162       O167   2.038       .  S
Zn162       O170   2.051       .  S
Zn162       O173   2.042   1_556  S
Zn163       O164   1.960       .  S
Zn163       O171   2.007       .  S
Zn163       O174   2.027       .  S
Zn163       O175   2.040       .  S
O165        C177   1.272       .  A
O166        C178   1.270       .  A
O167        C179   1.276       .  A
O168        C177   1.274       .  A
O169        C179   1.270       .  A
O170        C178   1.277       .  A
O171        C180   1.271       .  A
O172        C181   1.272       .  A
O173        C180   1.276       .  A
O174        C181   1.276       .  A
O175        C182   1.277       .  A
O176        C182   1.272       .  A
C177        C221   1.495       .  S
C178        C413   1.480       .  S
C179        C285   1.474       .  S
C180        C202   1.479       .  S
C181        C381   1.496       .  S
C182        C557   1.493       .  S
C183        C184   1.405       .  A
C183        C188   1.399       .  A
C183        C461   1.475       .  S
C184        C185   1.403       .  A
C184        H189   1.084       .  S
C185        C186   1.403       .  A
C185        C196   1.474       .  S
C186        C187   1.403       .  A
C186        H190   1.085       .  S
C187        C188   1.399       .  A
C187        C314   1.475       .  S
C188        H191   1.084       .  S
C192        C193   1.403       .  A
C192        C197   1.406       .  A
C192        C205   1.483       .  S
C193        C194   1.401       .  A
C193        H198   1.084       .  S
C194        C195   1.404       .  A
C194        C237   1.478       .  S
C195        C196   1.402       .  A
C195        H199   1.084       .  S
C196        C197   1.403       .  A
C197        H200   1.084       .  S
C201        C202   1.403       .  A
C201        C206   1.407       .  A
C201        H208   1.084       .  S
C202        C203   1.415       .  A
C203        C204   1.404       .  A
C203        C210   1.508       .  S
C204        C205   1.403       .  A
C204        H209   1.084       .  S
C205        C206   1.415       .  A
C206        C207   1.508       .  S
C207        H211   1.111       .  S
C207        H212   1.108       .  S
C207        H213   1.111       .  S
C210        H214   1.110       .  S
C210        H215   1.109       .  S
C210        H216   1.111       .  S
C217        C218   1.401       .  A
C217        C222   1.408       .  A
C217        H224   1.084       .  S
C218        C219   1.412       .  A
C219        C220   1.405       .  A
C219        C226   1.508       .  S
C220        C221   1.408       .  A
C220        H225   1.083       .  S
C221        C222   1.423       .  A
C222        C223   1.509       .  S
C223        H227   1.111       .  S
C223        H228   1.111       .  S
C223        H229   1.110       .  S
C226        H230   1.110       .  S
C226        H231   1.109       .  S
C226        H232   1.111       .  S
C233        C234   1.409       .  A
C233        C238   1.403       .  A
C233        H240   1.083       .  S
C234        C235   1.422       .  A
C235        C236   1.405       .  A
C235        C242   1.509       .  S
C236        C237   1.399       .  A
C236        H241   1.084       .  S
C237        C238   1.409       .  A
C238        C239   1.507       .  S
C239        H243   1.111       .  S
C239        H244   1.110       .  S
C239        H245   1.109       .  S
C242        H246   1.110       .  S
C242        H247   1.110       .  S
C242        H248   1.111       .  S
C249        C250   1.401       .  A
C249        C254   1.405       .  A
C249        H256   1.084       .  S
C250        C251   1.415       .  A
C251        C252   1.403       .  A
C251        C258   1.509   1_545  S
C252        C253   1.404       .  A
C252        H257   1.084       .  S
C253        C254   1.418       .  A
C254        C255   1.508       .  S
C255        H259   1.111       .  S
C255        H260   1.110       .  S
C255        H261   1.107       .  S
C258        H262   1.109       .  S
C258        H263   1.110       .  S
C258        H264   1.111       .  S
C265        C266   1.409       .  A
C265        C270   1.402       .  A
C265        H272   1.084       .  S
C266        C267   1.422       .  A
C267        C268   1.405       .  A
C267        C274   1.509       .  S
C268        C269   1.400       .  A
C268        H273   1.084       .  S
C269        C270   1.409       .  A
C270        C271   1.508       .  S
C271        H275   1.111       .  S
C271        H276   1.109       .  S
C271        H277   1.110       .  S
C274        H278   1.110       .  S
C274        H279   1.110       .  S
C274        H280   1.111       .  S
C281        C282   1.407       .  A
C281        C286   1.406       .  A
C281        H288   1.084       .  S
C282        C283   1.416       .  A
C283        C284   1.399       .  A
C283        C290   1.509       .  S
C284        C285   1.402       .  A
C284        H289   1.085       .  S
C285        C286   1.411       .  A
C286        C287   1.506       .  S
C287        H291   1.111       .  S
C287        H292   1.110       .  S
C287        H293   1.110       .  S
C290        H294   1.107       .  S
C290        H295   1.110       .  S
C290        H296   1.111       .  S
C297        C298   1.400       .  A
C297        C302   1.405       .  A
C297        H304   1.084       .  S
C298        C299   1.413       .  A
C299        C300   1.400       .  A
C299        C306   1.509       .  S
C300        C301   1.402       .  A
C300        H305   1.084       .  S
C301        C302   1.418       .  A
C302        C303   1.509       .  S
C303        H307   1.111       .  S
C303        H308   1.110       .  S
C303        H309   1.107       .  S
C306        H310   1.109       .  S
C306        H311   1.110       .  S
C306        H312   1.111       .  S
C313        C314   1.397       .  A
C313        C318   1.403       .  A
C313        H320   1.084       .  S
C314        C315   1.409       .  A
C315        C316   1.403       .  A
C315        C322   1.508       .  S
C316        C317   1.410       .  A
C316        H321   1.083       .  S
C317        C318   1.425       .  A
C318        C319   1.509       .  S
C319        H323   1.111       .  S
C319        H324   1.110       .  S
C319        H325   1.110       .  S
C322        H326   1.109       .  S
C322        H327   1.110       .  S
C322        H328   1.111       .  S
C329        C330   1.411       .  A
C329        C334   1.403       .  A
C329        H336   1.083       .  S
C330        C331   1.425       .  A
C331        C332   1.405       .  A
C331        C338   1.509       .  S
C332        C333   1.398       .  A
C332        H337   1.084       .  S
C333        C334   1.407       .  A
C334        C335   1.507       .  S
C335        H339   1.111       .  S
C335        H340   1.110       .  S
C335        H341   1.110       .  S
C338        H342   1.110       .  S
C338        H343   1.110       .  S
C338        H344   1.111       .  S
C345        C346   1.403       .  A
C345        C350   1.404       .  A
C345        H352   1.084       .  S
C346        C347   1.411       .  A
C347        C348   1.405       .  A
C347        C354   1.506       .  S
C348        C349   1.405       .  A
C348        H353   1.084       .  S
C349        C350   1.414       .  A
C350        C351   1.508       .  S
C351        H355   1.111       .  S
C351        H356   1.110       .  S
C351        H357   1.108       .  S
C354        H358   1.110   1_655  S
C354        H359   1.110   1_545  S
C354        H360   1.111       .  S
C361        C362   1.403       .  A
C361        C366   1.401       .  A
C361        H368   1.084       .  S
C362        C363   1.413       .  A
C363        C364   1.407       .  A
C363        C370   1.506       .  S
C364        C365   1.406       .  A
C364        H369   1.084       .  S
C365        C366   1.414       .  A
C366        C367   1.509       .  S
C367        H371   1.111       .  S
C367        H372   1.108       .  S
C367        H373   1.110       .  S
C370        H374   1.110       .  S
C370        H375   1.110   1_655  S
C370        H376   1.111       .  S
C377        C378   1.398       .  A
C377        C382   1.406       .  A
C377        H384   1.084       .  S
C378        C379   1.409       .  A
C379        C380   1.404       .  A
C379        C386   1.507       .  S
C380        C381   1.409       .  A
C380        H385   1.083       .  S
C381        C382   1.426       .  A
C382        C383   1.509       .  S
C383        H387   1.111       .  S
C383        H388   1.110       .  S
C383        H389   1.110       .  S
C386        H390   1.111       .  S
C386        H391   1.110       .  S
C386        H392   1.111       .  S
C393        C394   1.401       .  A
C393        C398   1.405   1_545  A
C393        H400   1.084       .  S
C394        C395   1.409       .  A
C395        C396   1.401       .  A
C395        C402   1.508       .  S
C396        C397   1.409   1_545  A
C396        H401   1.084       .  S
C397        C398   1.420       .  A
C398        C399   1.508       .  S
C399        H403   1.111       .  S
C399        H404   1.111       .  S
C399        H405   1.109       .  S
C402        H406   1.111       .  S
C402        H407   1.109       .  S
C402        H408   1.111       .  S
C409        C410   1.407       .  A
C409        C414   1.408       .  A
C409        H416   1.084       .  S
C410        C411   1.415       .  A
C411        C412   1.400       .  A
C411        C418   1.509       .  S
C412        C413   1.403       .  A
C412        H417   1.085       .  S
C413        C414   1.413       .  A
C414        C415   1.506       .  S
C415        H419   1.111       .  S
C415        H420   1.110       .  S
C415        H421   1.110       .  S
C418        H422   1.110       .  S
C418        H423   1.107       .  S
C418        H424   1.111       .  S
C425        C426   1.399       .  A
C425        C430   1.404       .  A
C425        H432   1.084       .  S
C426        C427   1.408       .  A
C427        C428   1.401       .  A
C427        C434   1.507       .  S
C428        C429   1.408       .  A
C428        H433   1.084       .  S
C429        C430   1.423       .  A
C430        C431   1.509       .  S
C431        H435   1.111       .  S
C431        H436   1.110       .  S
C431        H437   1.110       .  S
C434        H438   1.110       .  S
C434        H439   1.109       .  S
C434        H440   1.111       .  S
C441        C442   1.401       .  A
C441        C446   1.405       .  A
C441        H448   1.084       .  S
C442        C443   1.414       .  A
C443        C444   1.402       .  A
C443        C450   1.508   1_545  S
C444        C445   1.402       .  A
C444        H449   1.084       .  S
C445        C446   1.416       .  A
C446        C447   1.508       .  S
C447        H451   1.111       .  S
C447        H452   1.110       .  S
C447        H453   1.108       .  S
C450        H454   1.109       .  S
C450        H455   1.111       .  S
C450        H456   1.111       .  S
C457        C458   1.409       .  A
C457        C462   1.402       .  A
C457        H464   1.084       .  S
C458        C459   1.422       .  A
C459        C460   1.404       .  A
C459        C466   1.509       .  S
C460        C461   1.400       .  A
C460        H465   1.084       .  S
C461        C462   1.408       .  A
C462        C463   1.507       .  S
C463        H467   1.111       .  S
C463        H468   1.109       .  S
C463        H469   1.111       .  S
C466        H470   1.109       .  S
C466        H471   1.111       .  S
C466        H472   1.111       .  S
C473        C474   1.403       .  A
C473        C478   1.401       .  A
C473        H480   1.085   1_545  S
C474        C475   1.412       .  A
C475        C476   1.407       .  A
C475        C482   1.506       .  S
C476        C477   1.408       .  A
C476        H481   1.084       .  S
C477        C478   1.416       .  A
C478        C479   1.509       .  S
C479        H483   1.111   1_545  S
C479        H484   1.110       .  S
C479        H485   1.107       .  S
C482        H486   1.110       .  S
C482        H487   1.110       .  S
C482        H488   1.111       .  S
C489        C490   1.407       .  A
C489        C494   1.402       .  A
C489        H496   1.084       .  S
C490        C491   1.420       .  A
C491        C492   1.406       .  A
C491        C498   1.508       .  S
C492        C493   1.402       .  A
C492        H497   1.084       .  S
C493        C494   1.412       .  A
C494        C495   1.509       .  S
C495        H499   1.111       .  S
C495        H500   1.110       .  S
C495        H501   1.108       .  S
C498        H502   1.110       .  S
C498        H503   1.109       .  S
C498        H504   1.111       .  S
C505        C506   1.407   1_565  A
C505        C510   1.404   1_565  A
C505        H512   1.084       .  S
C506        C507   1.422       .  A
C507        C508   1.405       .  A
C507        C514   1.509       .  S
C508        C509   1.401       .  A
C508        H513   1.084       .  S
C509        C510   1.413       .  A
C510        C511   1.508       .  S
C511        H515   1.111   1_545  S
C511        H516   1.108   1_545  S
C511        H517   1.110       .  S
C514        H518   1.110       .  S
C514        H519   1.110       .  S
C514        H520   1.111       .  S
C521        C522   1.400       .  A
C521        C526   1.405       .  A
C521        H528   1.084       .  S
C522        C523   1.414       .  A
C523        C524   1.403       .  A
C523        C530   1.508       .  S
C524        C525   1.403       .  A
C524        H529   1.084       .  S
C525        C526   1.417       .  A
C526        C527   1.505       .  S
C527        H531   1.111       .  S
C527        H532   1.104       .  S
C527        H533   1.110       .  S
C530        H534   1.110       .  S
C530        H535   1.109       .  S
C530        H536   1.111       .  S
C537        C538   1.403       .  A
C537        C542   1.403       .  A
C537        H544   1.084       .  S
C538        C539   1.416       .  A
C539        C540   1.402       .  A
C539        C546   1.505       .  S
C540        C541   1.398       .  A
C540        H545   1.084       .  S
C541        C542   1.413       .  A
C542        C543   1.508       .  S
C543        H547   1.111       .  S
C543        H548   1.110       .  S
C543        H549   1.110       .  S
C546        H550   1.110       .  S
C546        H551   1.104       .  S
C546        H552   1.111       .  S
C553        C554   1.401       .  A
C553        C558   1.405       .  A
C553        H560   1.084       .  S
C554        C555   1.413       .  A
C555        C556   1.406       .  A
C555        C562   1.508       .  S
C556        C557   1.408       .  A
C556        H561   1.084       .  S
C557        C558   1.421       .  A
C558        C559   1.509       .  S
C559        H563   1.111       .  S
C559        H564   1.110       .  S
C559        H565   1.109       .  S
C562        H566   1.110       .  S
C562        H567   1.109       .  S
C562        H568   1.111       .  S
C569        C570   1.404       .  A
C569        C574   1.405       .  A
C569        H576   1.084       .  S
C570        C571   1.411       .  A
C571        C572   1.406       .  A
C571        C578   1.506       .  S
C572        C573   1.408       .  A
C572        H577   1.084       .  S
C573        C574   1.418       .  A
C574        C575   1.509       .  S
C575        H579   1.111       .  S
C575        H580   1.110       .  S
C575        H581   1.107       .  S
C578        H582   1.110       .  S
C578        H583   1.110       .  S
C578        H584   1.111       .  S
