geometry optimzed in LAMMPS
_audit_creation_date              2020-11-30 
_audit_creation_method            'lammps2cif' 
_symmetry_space_group_name_H-M    'P1' 
_symmetry_Int_Tables_number       1 
_symmetry_cell_setting            triclinic 
loop_ 
_symmetry_equiv_pos_as_xyz 
  x,y,z 
_cell_length_a                    41.57017527657913 
_cell_length_b                    41.12409696564481 
_cell_length_c                    40.813651809540794 
_cell_angle_alpha                 84.91948183666113 
_cell_angle_beta                  85.83087679948467 
_cell_angle_gamma                 87.95120550178365 
loop_ 
_atom_site_label 
_atom_site_type_symbol 
_atom_site_fract_x 
_atom_site_fract_y 
_atom_site_fract_z 
_atom_site_charge 
O1          O  0.47837838  0.08430737  0.06498748    -0.85770
O2          O  0.49508750  0.40602729  0.05588908    -0.85940
O3          O  0.44931886  0.47495245  0.10317210    -0.87610
O4          O  0.04941637  0.99048537  0.09876232    -0.86360
O5          O  0.08842585  0.99108707  0.05656470    -0.85950
O6          O  0.41124200  0.47744550  0.06536085    -0.87320
O7          O  0.49150283  0.44021336  0.09668376    -0.85800
O8          O  0.46465922  0.03819647  0.09668282    -0.85390
Zr9        Zr  0.49878068  0.99587379  0.07335225     2.84310
O10         O  0.03653905  0.47195723  0.03917377    -1.07370
O11         O  0.46779410  0.03105522  0.04145456    -1.08090
C12         C  0.46619821  0.06901436  0.09155039     1.07340
C13         C  0.48686406  0.41253926  0.08585898     1.07280
C14         C  0.42111054  0.46878279  0.09434933     1.10260
C15         C  0.07815481  0.98400549  0.08691992     1.08040
H16         H  0.45845627  0.44992716  0.04836927     0.33600
O17         O  0.47228596  0.46678554  0.03871685    -1.28320
H18         H  0.03919194  0.05153932  0.05810493     0.33270
O19         O  0.02835488  0.03925344  0.04330020    -1.30000
O20         O  0.03935151  0.42533870  0.44013723    -0.85770
O21         O  0.97582102  0.10387431  0.45775274    -0.87260
O22         O  0.42598685  0.45891250  0.47580943    -0.85840
O23         O  0.09785178  0.46713975  0.98758291    -0.85890
O24         O  0.08571837  0.06600624  0.01267986    -0.85610
O25         O  0.41460494  0.05743046  0.51229712    -0.85410
O26         O  0.45905849  0.53497109  0.40917145    -0.85780
O27         O  0.05293060  0.03797734  0.41326898    -0.85240
O28         O  0.41782677  0.53246654  0.44838281    -0.86310
O29         O  0.09123930  0.03389024  0.45104168    -0.85470
O30         O  0.46070094  0.41407321  0.99526493    -0.85860
O31         O  0.45035478  0.09713393  0.51695958    -0.85590
O32         O  0.04867826  0.09576111  0.48721687    -0.85240
O33         O  0.06626253  0.42471501  0.00686440    -0.85640
O34         O  0.02638057  0.46921016  0.40514436    -0.85940
O35         O  0.98531883  0.06972527  0.41645290    -0.87280
Zr36       Zr  0.00937403  0.44200452  0.00520718     2.83100
Zr37       Zr  0.50454503  0.07973029  0.49244367     2.83500
Zr38       Zr  0.44595925  0.50850113  0.49239745     2.84090
Zr39       Zr  0.06554837  0.01381948  0.00586166     2.83360
Zr40       Zr  0.01120773  0.52288908  0.42753339     2.84220
O41         O  0.03243539  0.04724069  0.47488739    -1.07850
O42         O  0.48132461  0.47985205  0.45749231    -1.07350
C43         C  0.03807017  0.43965457  0.41152092     1.07310
C44         C  0.97288255  0.09599247  0.42790504     1.09930
C45         C  0.43598989  0.42926451  0.48174388     1.07480
C46         C  0.09088663  0.43672738  0.98931264     1.07840
C47         C  0.07600617  0.09240345  0.99691975     1.07420
C48         C  0.42203629  0.08449551  0.52271368     1.06980
C49         C  0.42937463  0.53904300  0.41919418     1.07400
C50         C  0.08165936  0.04214441  0.42167131     1.06910
H51         H  0.45616224  0.06639108  0.45711588     0.33590
O52         O  0.47290912  0.05109261  0.46337733    -1.28950
H53         H  0.06066783  0.48032935  0.44388437     0.33620
O54         O  0.04362569  0.48771758  0.45885509    -1.30330
C55         C  0.01915243  0.14779030  0.19687873     0.03850
C56         C  0.98620360  0.15614241  0.20266967    -0.12300
C57         C  0.97107132  0.17037609  0.17552958     0.01350
C58         C  0.98576952  0.19870877  0.16204519    -0.10830
C59         C  0.01906335  0.19601638  0.15297258     0.03840
C60         C  0.03694522  0.17004581  0.17233817    -0.10250
H61         H  0.97152837  0.14030057  0.21992243     0.09430
H62         H  0.97078577  0.21586873  0.14769024     0.06960
H63         H  0.06107467  0.16287772  0.16338022     0.06810
O64         O  0.50066637  0.09309275  0.19557164    -0.74580
O65         O  0.04704782  0.09907105  0.22439509    -0.53480
C66         C  0.02484224  0.11070532  0.20535887     0.79150
O67         O  0.41269723  0.99841785  0.30615562    -0.59180
O68         O  0.40548351  0.45328666  0.27931936    -0.52210
C69         C  0.39492938  0.47554850  0.29836625     0.71170
O70         O  0.48844890  0.07962346  0.31044537    -0.73740
O71         O  0.03697486  0.08823432  0.29567288    -0.54300
C72         C  0.01114061  0.09519973  0.31458714     0.77170
O73         O  0.42157865  0.02715648  0.18228512    -0.58880
O74         O  0.41207257  0.47887846  0.21230996    -0.52000
C75         C  0.40338824  0.50371446  0.19148278     0.73760
Zr76       Zr  0.47539180  0.03841311  0.20208518     2.54710
O77         O  0.43171348  0.07896370  0.20085382    -0.79440
O78         O  0.49895700  0.02046203  0.15139451    -0.92860
Zr79       Zr  0.46672166  0.02600157  0.29754513     2.64680
O80         O  0.42245826  0.06578042  0.29781017    -0.97820
O81         O  0.47210741  0.01263342  0.35485142    -0.79880
O82         O  0.49383034  0.05389918  0.25125652    -0.83240
O83         O  0.44995034  0.00957262  0.24844251    -2.17940
O84         O  0.03153576  0.41084377  0.18820650    -0.66630
O85         O  0.48230467  0.40355863  0.21348085    -0.51190
C86         C  0.50805557  0.39300162  0.19568964     0.72140
O87         O  0.08626339  0.47129887  0.31635952    -0.59530
O88         O  0.09328080  0.02255349  0.29377976    -0.51510
C89         C  0.10254509  0.99740434  0.31323231     0.73950
O90         O  0.00522334  0.40617190  0.30920142    -0.70930
O91         O  0.46192163  0.39832126  0.27921192    -0.49600
C92         C  0.48293833  0.38851942  0.30021040     0.75330
O93         O  0.08752419  0.49842363  0.17799664    -0.66260
O94         O  0.10100646  0.03382797  0.21848165    -0.53460
C95         C  0.10795944  0.01645443  0.19334141     0.73710
Zr96       Zr  0.04100422  0.46756174  0.20191825     2.77540
O97         O  0.08385756  0.42901403  0.21863348    -0.97010
O98         O  0.02841552  0.45759927  0.14778000    -0.77830
Zr99       Zr  0.03329846  0.45843495  0.29598279     2.70070
O100        O  0.07114974  0.41242454  0.30286186    -0.79080
O101        O  0.01407889  0.47679563  0.34556364    -0.98160
Zr102      Zr  0.05071798  0.04392629  0.25596914     2.21500
Zr103      Zr  0.45809167  0.45181927  0.24587236     2.11130
O104        O  0.01414757  0.44175775  0.24839905    -2.46850
O105        O  0.06021203  0.48598056  0.24981160    -0.78870
O106        O  0.48526996  0.48086099  0.19978285    -0.71060
O107        O  0.02214687  0.01561323  0.30229871    -2.32020
O108        O  0.03245884  0.02638405  0.20585234    -2.28230
O109        O  0.47712559  0.46871839  0.29612569    -0.72820
H110        H  0.42742749  0.01595328  0.24842695     0.79170
H111        H  0.02954207  0.02349171  0.32196463     0.80260
H112        H  0.01989691  0.41883799  0.24935873     0.82490
H113        H  0.04347135  0.03849107  0.18725086     0.80090
H114        H  0.49102736  0.02526249  0.35899228     0.43130
H115        H  0.00238291  0.45800715  0.35628097     0.42100
H116        H  0.09186333  0.41875546  0.29099307     0.41780
H117        H  0.09288622  0.43778449  0.23761859     0.39710
H118        H  0.00569287  0.46405375  0.14607157     0.42840
H119        H  0.50580758  0.03947327  0.13679316     0.37630
H120        H  0.43300595  0.08998440  0.22130026     0.43740
H121        H  0.41111007  0.06306623  0.27779213     0.40160
H122        H  0.07343482  0.40880191  0.22837096     0.45080
H123        H  0.48008328  0.01138356  0.14266299     0.43800
H124        H  0.40738079  0.05794804  0.31633677     0.43940
H125        H  0.03606602  0.47735761  0.35288841     0.44290
C126        C  0.36840755  0.00198347  0.17695141     0.03850
C127        C  0.34695412  0.97990364  0.19470145    -0.12300
C128        C  0.33142340  0.95879388  0.17594568     0.01350
C129        C  0.31431067  0.97537046  0.15104943    -0.10830
C130        C  0.32939274  0.00097392  0.13115815     0.03840
C131        C  0.35874351  0.01333980  0.14360555    -0.10250
H132        H  0.35225376  0.97058472  0.21944222     0.09430
H133        H  0.29545895  0.96240331  0.14113535     0.06960
H134        H  0.37429434  0.02915720  0.12740571     0.06810
C135        C  0.00658973  0.35788371  0.18181135     0.03850
C136        C  0.98217496  0.33695383  0.19606558    -0.12300
C137        C  0.96424611  0.32189853  0.17375697     0.01350
C138        C  0.98373218  0.30374719  0.15251389    -0.10830
C139        C  0.01052272  0.31909807  0.13544655     0.03840
C140        C  0.02150991  0.34816583  0.14989336    -0.10250
H141        H  0.96969035  0.34272356  0.21914597     0.09430
H142        H  0.97244236  0.28441908  0.14154737     0.06960
H143        H  0.03869560  0.36386492  0.13574262     0.06810
C144        C  0.14236318  0.00764327  0.18218217     0.03850
C145        C  0.14959206  0.97443302  0.19117852    -0.12300
C146        C  0.16880663  0.95677863  0.16938579     0.01350
C147        C  0.19587398  0.97364168  0.15554648    -0.10830
C148        C  0.19029375  0.00582980  0.14148018     0.03840
C149        C  0.16202710  0.02317240  0.15485244    -0.10250
H150        H  0.13344101  0.96086861  0.20856141     0.09430
H151        H  0.21523295  0.95908119  0.14432997     0.06960
H152        H  0.15404307  0.04616243  0.14263830     0.06810
C153        C  0.49057632  0.35235081  0.30887293     0.03850
C154        C  0.52423506  0.34672233  0.30515780    -0.12300
C155        C  0.53830558  0.33374751  0.33327568     0.01350
C156        C  0.52520016  0.30381365  0.34369180    -0.10830
C157        C  0.49161355  0.30385733  0.35122472     0.03840
C158        C  0.47301016  0.32891706  0.33199242    -0.10250
H159        H  0.53874534  0.36322623  0.28848489     0.09430
H160        H  0.54058676  0.28600186  0.35655164     0.06960
H161        H  0.44807566  0.33423480  0.33978444     0.06810
C162        C  0.13624719  0.99935019  0.32682811     0.03850
C163        C  0.15549522  0.02368240  0.30973333    -0.12300
C164        C  0.17278124  0.04200770  0.32888241     0.01350
C165        C  0.19271516  0.02235183  0.34967649    -0.10830
C166        C  0.17993454  0.99419607  0.36789406     0.03840
C167        C  0.14905195  0.98389332  0.35731221    -0.10250
H168        H  0.14843474  0.03565593  0.28653914     0.09430
H169        H  0.21317235  0.03358921  0.35865389     0.06960
H170        H  0.13500498  0.96615542  0.37283083     0.06810
C171        C  0.00563869  0.12902603  0.32897377     0.03850
C172        C  0.97988600  0.14790595  0.31527293    -0.12300
C173        C  0.96292635  0.17119548  0.33403511     0.01350
C174        C  0.98318810  0.18942076  0.35026826    -0.10830
C175        C  0.00388602  0.17134906  0.37127642     0.03840
C176        C  0.01637701  0.14010431  0.35964884    -0.10250
H177        H  0.96767788  0.13835727  0.29574787     0.09430
H178        H  0.97388361  0.21320832  0.35648522     0.06960
H179        H  0.03183871  0.12430879  0.37471714     0.06810
C180        C  0.35844574  0.48067353  0.30780930     0.03850
C181        C  0.34942103  0.51396673  0.30294466    -0.12300
C182        C  0.33410390  0.52778436  0.32995446     0.01350
C183        C  0.30698669  0.51143195  0.34276242    -0.10830
C184        C  0.31230457  0.47824116  0.35244278     0.03840
C185        C  0.33723058  0.46119746  0.33190730    -0.10250
H186        H  0.36455518  0.52994137  0.28636465     0.09430
H187        H  0.28950731  0.52542285  0.35731527     0.06960
H188        H  0.34503718  0.43662364  0.34015285     0.06810
O189        O  0.20297672  0.48680950  0.08813447    -0.74580
O190        O  0.22253814  0.03640763  0.09624307    -0.53480
C191        C  0.20562140  0.01135827  0.10656520     0.79150
O192        O  0.31107169  0.41030934  0.99629578    -0.59180
O193        O  0.29082371  0.39669842  0.45781481    -0.52210
C194        C  0.30874903  0.38887724  0.48199269     0.71170
O195        O  0.32272707  0.48093907  0.07809158    -0.73740
O196        O  0.29557747  0.02889596  0.08891477    -0.54300
C197        C  0.31640673  0.00526510  0.09634016     0.77170
O198        O  0.19216558  0.40571596  0.02180938    -0.58880
O199        O  0.21758451  0.40026456  0.47430840    -0.52000
C200        C  0.19817496  0.38820386  0.49836332     0.73760
Zr201      Zr  0.20985361  0.45925686  0.03691015     2.54710
O202        O  0.21588822  0.41287766  0.07800229    -0.79440
O203        O  0.15310642  0.46318227  0.02562135    -0.92860
Zr204      Zr  0.30231348  0.46065921  0.02734870     2.64680
O205        O  0.27756532  0.42737479  0.07414204    -0.97820
O206        O  0.35831489  0.47018628  0.03640072    -0.79880
O207        O  0.25634747  0.48302341  0.05430524    -0.83240
O208        O  0.25608346  0.43771232  0.00891578    -2.17940
O209        O  0.18968054  0.01169336  0.41996383    -0.66630
O210        O  0.21594084  0.46102019  0.40735950    -0.51190
C211        C  0.19584734  0.48561413  0.39927671     0.72140
O212        O  0.32288338  0.07505582  0.47618937    -0.59530
O213        O  0.29430466  0.08568691  0.02243016    -0.51510
C214        C  0.31433744  0.09657579  0.99815031     0.73950
O215        O  0.31058572  0.99524374  0.40814593    -0.70930
O216        O  0.28496631  0.44905748  0.40144331    -0.49600
C217        C  0.30362613  0.47232648  0.38989880     0.75330
O218        O  0.19989824  0.08121763  0.49762812    -0.66260
O219        O  0.22363404  0.09333559  0.04188425    -0.53460
C220        C  0.20491971  0.10213700  0.01859739     0.73710
Zr221      Zr  0.21000857  0.02924798  0.47012532     2.77540
O222        O  0.22965985  0.06819163  0.42485801    -0.97010
O223        O  0.15284766  0.01902214  0.48187499    -0.77830
Zr224      Zr  0.30404957  0.02095177  0.46288814     2.70070
O225        O  0.31307390  0.06214427  0.41708924    -0.79080
O226        O  0.35882183  0.00224974  0.46967379    -0.98160
Zr227      Zr  0.25673909  0.04145662  0.04382672     2.21500
Zr228      Zr  0.25364875  0.44535325  0.45520883     2.11130
O229        O  0.25558425  0.00307662  0.44483242    -2.46850
O230        O  0.25779381  0.04741477  0.48841631    -0.78870
O231        O  0.20772736  0.47058216  0.48098526    -0.71060
O232        O  0.30123181  0.01779492  0.01370813    -2.32020
O233        O  0.20860747  0.01798217  0.02630541    -2.28230
O234        O  0.30118954  0.46453013  0.47896866    -0.72820
H235        H  0.25615313  0.41445278  0.01481229     0.79170
H236        H  0.32059060  0.02672315  0.02036057     0.80260
H237        H  0.25497887  0.00744570  0.42133774     0.82490
H238        H  0.18961291  0.02735191  0.03737893     0.80090
H239        H  0.36363943  0.49217883  0.02611911     0.43130
H240        H  0.36828925  0.00232911  0.44675025     0.42100
H241        H  0.29824388  0.08084343  0.42142211     0.41780
H242        H  0.24426080  0.08245678  0.43474067     0.39710
H243        H  0.14676701  0.00457543  0.46548767     0.42840
H244        H  0.14525120  0.48499944  0.03118922     0.37630
H245        H  0.21987374  0.42238664  0.09872895     0.43740
H246        H  0.27898002  0.40394788  0.07030257     0.40160
H247        H  0.24342851  0.05720622  0.40818620     0.45080
H248        H  0.14091475  0.44734643  0.04084467     0.43800
H249        H  0.29019658  0.43008572  0.09311638     0.43940
H250        H  0.36825146  0.02058048  0.47941885     0.44290
O251        O  0.49201415  0.31217147  0.08177053    -0.74580
O252        O  0.04170514  0.28980097  0.09164679    -0.53480
C253        C  0.01631564  0.30778220  0.10013592     0.79150
O254        O  0.42604770  0.18063315  0.02291258    -0.59180
O255        O  0.41220295  0.20273419  0.46738297    -0.52210
C256        C  0.40383853  0.18595355  0.49499795     0.71170
O257        O  0.50132437  0.20063936  0.09718741    -0.73740
O258        O  0.04957118  0.22263115  0.10307751    -0.54300
C259        C  0.02482901  0.20657223  0.11568450     0.77170
O260        O  0.42202096  0.29959102  0.99803168    -0.58880
O261        O  0.40678029  0.27641751  0.45081509    -0.52000
C262        C  0.40117281  0.29607374  0.47348232     0.73760
Zr263      Zr  0.47214886  0.29381062  0.03025765     2.54710
O264        O  0.43688612  0.27674261  0.07891849    -0.79440
O265        O  0.48865727  0.35048207  0.02242651    -0.92860
Zr266      Zr  0.47700901  0.20041774  0.04336056     2.64680
O267        O  0.43690287  0.20661340  0.08862096    -0.97820
O268        O  0.48962855  0.14309833  0.05313396    -0.79880
O269        O  0.49834030  0.24903421  0.05707285    -0.83240
O270        O  0.45159652  0.24497620  0.01406087    -2.17940
O271        O  0.00904403  0.29735819  0.40807530    -0.66630
O272        O  0.46169587  0.27250060  0.39812498    -0.51190
C273        C  0.48513740  0.29117699  0.38745996     0.72140
O274        O  0.08591692  0.17545602  0.50804981    -0.59530
O275        O  0.10251603  0.21306131  0.03875904    -0.51510
C276        C  0.10923036  0.18870751  0.02087552     0.73950
O277        O  0.02680039  0.17682616  0.42515840    -0.70930
O278        O  0.48102463  0.20636809  0.40843980    -0.49600
C279        C  0.50507747  0.18642008  0.39999637     0.75330
O280        O  0.08775968  0.30438520  0.48120870    -0.66260
O281        O  0.10052030  0.28811063  0.02980735    -0.53460
C282        C  0.10651647  0.30503875  0.00181261     0.73710
Zr283      Zr  0.03706231  0.29051708  0.45959076     2.77540
O284        O  0.07750817  0.28038614  0.41479846    -0.97010
O285        O  0.03570344  0.34765941  0.43987696    -0.77830
Zr286      Zr  0.03869148  0.19662213  0.47928986     2.70070
O287        O  0.08072159  0.20965719  0.43708891    -0.79080
O288        O  0.01728041  0.14354627  0.49497723    -0.98160
Zr289      Zr  0.05473792  0.25106227  0.04655719     2.21500
Zr290      Zr  0.45747683  0.24166739  0.45317474     2.11130
O291        O  0.01663739  0.24099112  0.44772117    -2.46850
O292        O  0.05959776  0.24637527  0.49252969    -0.78870
O293        O  0.47828018  0.29192248  0.47024040    -0.71060
O294        O  0.03378459  0.20117103  0.03002111    -2.32020
O295        O  0.02782382  0.29495145  0.01625809    -2.28230
O296        O  0.48165971  0.19791436  0.48615612    -0.72820
H297        H  0.42883234  0.24399621  0.02063639     0.79170
H298        H  0.04390551  0.18265821  0.04181535     0.80260
H299        H  0.02281397  0.23903495  0.42477896     0.82490
H300        H  0.03760423  0.31441405  0.02175752     0.80090
H301        H  0.51206131  0.14122125  0.05976121     0.43130
H302        H  0.02451411  0.13843393  0.51741980     0.42100
H303        H  0.09532472  0.22397092  0.44687927     0.41780
H304        H  0.07019104  0.26148380  0.40432064     0.39710
H305        H  0.01326404  0.35528464  0.44435616     0.42840
H306        H  0.50771644  0.35280351  0.03500922     0.37630
H307        H  0.45102016  0.26625859  0.09550118     0.43740
H308        H  0.41650199  0.21139339  0.07787992     0.40160
H309        H  0.07441072  0.29870829  0.39782911     0.45080
H310        H  0.47172855  0.36193835  0.03497703     0.43800
H311        H  0.43505262  0.18460852  0.10021674     0.43940
H312        H  0.99348147  0.14354059  0.49769105     0.44290
C313        C  0.19017522  0.13683040  0.01247703     0.03850
C314        C  0.16084361  0.14943398  0.02907040    -0.12300
C315        C  0.14380455  0.17771446  0.01394796     0.01350
C316        C  0.15510920  0.18982454  0.98204550    -0.10830
C317        C  0.17316441  0.16850838  0.96321483     0.03840
C318        C  0.19836161  0.15219200  0.98049218    -0.10250
H319        H  0.15030531  0.13624624  0.05114082     0.09430
H320        H  0.14117741  0.20881505  0.96890360     0.06960
H321        H  0.21792596  0.14123401  0.96577871     0.06810
C322        C  0.18318154  0.35981338  0.98871249     0.03850
C323        C  0.19154019  0.34916313  0.95704013    -0.12300
C324        C  0.16949051  0.33375728  0.44472361     0.01350
C325        C  0.14969008  0.31505235  0.95814612    -0.10830
C326        C  0.13914422  0.31957765  0.99138297     0.03840
C327        C  0.15552310  0.34430137  0.00672213    -0.10250
H328        H  0.21564555  0.35185469  0.44873744     0.09430
H329        H  0.13961277  0.29229698  0.45026435     0.06960
H330        H  0.14594113  0.35259778  0.03000116     0.06810
C331        C  0.32949545  0.12957380  0.00244180     0.03850
C332        C  0.31286055  0.14740672  0.02674403    -0.12300
C333        C  0.33036248  0.16007449  0.54653482     0.01350
C334        C  0.35570233  0.18170316  0.03106468    -0.10830
C335        C  0.37404073  0.16964288  0.00407970     0.03840
C336        C  0.36127583  0.14148578  0.99031548    -0.10250
H337        H  0.28769532  0.13716493  0.53785940     0.09430
H338        H  0.36601199  0.20009168  0.04428267     0.06960
H339        H  0.37604060  0.12848696  0.97252000     0.06810
C340        C  0.36822163  0.31095386  0.48414877     0.03850
C341        C  0.36196799  0.30578627  0.51891546    -0.12300
C342        C  0.35145866  0.33323246  0.53500153     0.01350
C343        C  0.32283243  0.34462321  0.52217810    -0.10830
C344        C  0.32504912  0.35526740  0.48824109     0.03840
C345        C  0.34984923  0.33827421  0.46818143    -0.10250
H346        H  0.37561428  0.28713468  0.53292133     0.09430
H347        H  0.30492022  0.35528918  0.53880091     0.06870
H348        H  0.35636432  0.34745590  0.44300806     0.06810
C349        C  0.40729742  0.35295973  0.52099722     0.24310
C350        C  0.37657743  0.35959668  0.53463198    -0.23800
C351        C  0.36753898  0.39267098  0.53211405     0.19220
C352        C  0.38258324  0.41424559  0.50733489     0.24250
C353        C  0.41110805  0.40466635  0.48983116    -0.23740
C354        C  0.42117746  0.37230578  0.49436509     0.19160
F355        F  0.44229204  0.35398581  0.99070240    -0.13700
F356        F  0.41057106  0.32117415  0.04931853    -0.16060
F357        F  0.36887896  0.44370653  0.49888384    -0.16060
F358        F  0.34370916  0.40316842  0.55303046    -0.13700
C359        C  0.36660541  0.08542888  0.55452326     0.24310
C360        C  0.39650965  0.10041561  0.54470381    -0.23800
C361        C  0.39730235  0.12617820  0.07201929     0.19220
C362        C  0.37249601  0.14513011  0.08692801     0.24250
C363        C  0.34556834  0.13691450  0.57269779    -0.23740
C364        C  0.34176929  0.10329682  0.57124425     0.19160
F365        F  0.31213316  0.09087143  0.57862089    -0.13700
F366        F  0.36102859  0.05472182  0.54731151    -0.16060
F367        F  0.37886227  0.17235305  0.10123166    -0.16060
F368        F  0.42811073  0.13555190  0.07153886    -0.13700
C369        C  0.15562964  0.40191084  0.92916199     0.24310
C370        C  0.14430537  0.37003519  0.92895511    -0.23800
C371        C  0.11611860  0.36103847  0.43500088     0.19220
C372        C  0.10024370  0.38214061  0.45607726     0.24250
C373        C  0.10982761  0.41494944  0.96732610    -0.23740
C374        C  0.13886257  0.42410677  0.94920231     0.19160
F375        F  0.15210305  0.45298321  0.95258689    -0.13700
F376        F  0.18500452  0.40917936  0.91443854    -0.16060
F377        F  0.07251794  0.37279620  0.47310049    -0.16060
F378        F  0.10081901  0.33536421  0.42616620    -0.13700
C379        C  0.13328156  0.10201717  0.97893070     0.24310
C380        C  0.10118015  0.11256339  0.97733661    -0.23800
C381        C  0.09794629  0.13727169  0.45093606     0.19220
C382        C  0.12394400  0.15730450  0.43743400     0.24250
C383        C  0.15298800  0.14729963  0.94425932    -0.23740
C384        C  0.15588707  0.11498712  0.95481030     0.19160
F385        F  0.18254540  0.09919117  0.94491199    -0.13700
F386        F  0.14206285  0.07899198  0.00247981    -0.16060
F387        F  0.12126557  0.17589139  0.40856570    -0.16060
F388        F  0.06985229  0.13870415  0.43664155    -0.13700
C389        C  0.38346767  0.06861080  0.38601196     0.24310
C390        C  0.40681418  0.54155219  0.39495935    -0.23800
C391        C  0.40355355  0.51178925  0.38351976     0.19220
C392        C  0.37661893  0.50646315  0.36928987     0.24250
C393        C  0.35703882  0.53287855  0.35552428    -0.23740
C394        C  0.36002538  0.06456759  0.36370866     0.19160
F395        F  0.34089060  0.09020802  0.35311403    -0.13700
F396        F  0.38432884  0.09677372  0.40083327    -0.16060
F397        F  0.36938556  0.47488754  0.37522712    -0.16060
F398        F  0.42253996  0.48527945  0.39322332    -0.13700
C399        C  0.42921559  0.17344605  0.37680906     0.24310
C400        C  0.93252930  0.16010736  0.35476825    -0.23800
C401        C  0.92635163  0.12723539  0.35365720     0.19220
C402        C  0.94152450  0.10530406  0.37640929     0.24250
C403        C  0.95185818  0.11669821  0.40560896    -0.23740
C404        C  0.44131638  0.15123754  0.40184861     0.19160
F405        F  0.44212768  0.15962813  0.43305900    -0.13700
F406        F  0.42026451  0.20438174  0.38332639    -0.16060
F407        F  0.94615018  0.07392276  0.36968683    -0.16060
F408        F  0.91570180  0.11733835  0.32588990    -0.13700
C409        C  0.14526831  0.56717597  0.39012184     0.24310
C410        C  0.10493787  0.05757068  0.39538280    -0.23800
C411        C  0.09608417  0.06651704  0.36288382     0.19220
C412        C  0.12015389  0.07432469  0.33756208     0.24250
C413        C  0.15296923  0.06938661  0.34429261    -0.23740
C414        C  0.16757649  0.57779600  0.36431278     0.19160
F415        F  0.19740887  0.58674647  0.37012209    -0.13700
F416        F  0.15580023  0.55977480  0.42004909    -0.16060
F417        F  0.11187850  0.08131095  0.30612286    -0.16060
F418        F  0.06501273  0.06564857  0.35512444    -0.13700
C419        C  0.07154742  0.37219294  0.36056144     0.24310
C420        C  0.53948952  0.35833202  0.35888632    -0.23800
C421        C  0.51094396  0.37058817  0.37618579     0.19220
C422        C  0.51033089  0.39911390  0.39069281     0.24250
C423        C  0.53830194  0.41510416  0.39312326    -0.23740
C424        C  0.07158817  0.40163604  0.37620321     0.19160
F425        F  0.09989864  0.41534608  0.38077462    -0.13700
F426        F  0.09966843  0.35937515  0.34757236    -0.16060
F427        F  0.48189275  0.40983476  0.40552054    -0.16060
F428        F  0.48260873  0.35592958  0.38209390    -0.13700
C429        C  0.09546033  0.43816300  0.13162136     0.24310
C430        C  0.10146013  0.96699258  0.10895180    -0.23800
C431        C  0.13375327  0.97418487  0.10250641     0.19220
C432        C  0.15600118  0.94979796  0.11242687     0.24250
C433        C  0.15118868  0.93871614  0.14558988    -0.23740
C434        C  0.12038280  0.42585625  0.15210933     0.19160
F435        F  0.11585577  0.39918391  0.17369531    -0.13700
F436        F  0.06975413  0.41951445  0.12915695    -0.16060
F437        F  0.15837745  0.92521140  0.09236866    -0.16060
F438        F  0.14271878  0.00154158  0.08356149    -0.13700
C439        C  0.95982249  0.39616416  0.14201713     0.24310
C440        C  0.96706976  0.38906596  0.10939846    -0.23800
C441        C  0.44760322  0.36565437  0.09928074     0.19220
C442        C  0.43448853  0.34149158  0.12306847     0.24250
C443        C  0.93888442  0.34374990  0.15672318    -0.23740
C444        C  0.93945438  0.37615870  0.16362369     0.19160
F445        F  0.93169829  0.38337600  0.19489094    -0.13700
F446        F  0.97387722  0.42116068  0.15315262    -0.16060
F447        F  0.41164580  0.32141580  0.11534234    -0.16060
F448        F  0.43272630  0.37350070  0.07167300    -0.13700
C449        C  0.40583391  0.94458949  0.15173923     0.24310
C450        C  0.39955915  0.94963435  0.11839529    -0.23800
C451        C  0.37318734  0.43237233  0.10977899     0.19220
C452        C  0.34964554  0.42053444  0.13410575     0.24250
C453        C  0.35146885  0.92909456  0.16570618    -0.23740
C454        C  0.38327594  0.92854606  0.17468119     0.19160
F455        F  0.38866408  0.92382218  0.20715744    -0.13700
F456        F  0.43224549  0.95726396  0.16203606    -0.16060
F457        F  0.32527820  0.40221151  0.12664762    -0.16060
F458        F  0.37220330  0.42551890  0.07856587    -0.13700
C459        C  0.43591340  0.13007306  0.15020008     0.24310
C460        C  0.96600628  0.14559637  0.15149025    -0.23800
C461        C  0.99293171  0.13108495  0.13377084     0.19220
C462        C  0.99189115  0.10128540  0.12329411     0.24250
C463        C  0.96255402  0.08823982  0.12013978    -0.23740
C464        C  0.43451255  0.10148031  0.13354003     0.19160
F465        F  0.40602419  0.08680754  0.13201265    -0.13700
F466        F  0.40898764  0.14189051  0.16648563    -0.16060
F467        F  0.01976222  0.08867231  0.10871338    -0.16060
F468        F  0.02152916  0.14386919  0.12404362    -0.13700
O469        O  0.48269439  0.09164123  0.54626431    -0.85770
O470        O  0.49938959  0.41597342  0.54818683    -0.85940
O471        O  0.45414108  0.52226299  0.55219365    -0.87610
O472        O  0.04857035  0.99074954  0.59982315    -0.86360
O473        O  0.08763734  0.98985211  0.55783508    -0.85950
O474        O  0.41260847  0.49741680  0.54122221    -0.87320
O475        O  0.49691680  0.45238596  0.58703786    -0.85800
O476        O  0.48836823  0.05038355  0.58570600    -0.85390
Zr477      Zr  0.50659763  0.00685981  0.55552047     2.84310
O478        O  0.04171778  0.47285071  0.52129089    -1.07370
O479        O  0.49801628  0.02289927  0.50029608    -1.08090
C480        C  0.47862867  0.07877824  0.57579102     1.07340
C481        C  0.49096111  0.42450240  0.57767897     1.07280
C482        C  0.43251618  0.50256800  0.56179408     1.10260
C483        C  0.07715574  0.98336114  0.58822241     1.08040
H484        H  0.46149110  0.45742443  0.53720032     0.33600
O485        O  0.47636496  0.47329677  0.52699459    -1.28320
H486        H  0.04033089  0.05150945  0.55732578     0.33270
O487        O  0.02942225  0.03917832  0.54260668    -1.30000
O488        O  0.02669512  0.42286187  0.95423068    -0.85770
O489        O  0.97342510  0.10251253  0.95870857    -0.87260
O490        O  0.41902605  0.45203260  0.99531669    -0.85840
O491        O  0.10332289  0.46586153  0.47690018    -0.85890
O492        O  0.08753534  0.06525546  0.51129272    -0.85610
O493        O  0.40844170  0.04854303  0.03473731    -0.85410
O494        O  0.45068791  0.52471577  0.92178857    -0.85780
O495        O  0.05041239  0.03837029  0.91269795    -0.85240
O496        O  0.41139404  0.52090783  0.96360812    -0.86310
O497        O  0.08863789  0.03609545  0.95040610    -0.85470
O498        O  0.46552813  0.42021550  0.48667731    -0.85860
O499        O  0.44056348  0.09326273  0.02747432    -0.85590
O500        O  0.04591533  0.10038493  0.99550919    -0.85240
O501        O  0.06836455  0.42632346  0.49587814    -0.85640
O502        O  0.01649618  0.46628544  0.91698364    -0.85940
O503        O  0.98486977  0.06976395  0.91663003    -0.87280
Zr504      Zr  0.01298714  0.44486802  0.48659825     2.83100
Zr505      Zr  0.49447486  0.07277492  0.00988966     2.83500
Zr506      Zr  0.43682342  0.50159525  0.01236912     2.84090
Zr507      Zr  0.06670368  0.01272252  0.50611324     2.83360
Zr508      Zr  0.00216968  0.51689588  0.94351793     2.84220
O509        O  0.03069339  0.04832690  0.97534316    -1.07850
O510        O  0.47322599  0.47582994  0.97474856    -1.07350
C511        C  0.02644746  0.43656665  0.92504163     1.07310
C512        C  0.97181020  0.09554555  0.92835741     1.09930
C513        C  0.43054702  0.42279251  0.99429837     1.07480
C514        C  0.09462668  0.43594730  0.47966216     1.07840
C515        C  0.07843664  0.09021908  0.49287567     1.07420
C516        C  0.41425613  0.07868405  0.03839413     1.06980
C517        C  0.42151195  0.52762581  0.93357119     1.07400
C518        C  0.07886423  0.04360045  0.92095138     1.06910
H519        H  0.45078684  0.05486244  0.97266211     0.33590
O520        O  0.46713518  0.04011257  0.98068940    -1.28950
H521        H  0.05305844  0.47596789  0.95694392     0.33620
O522        O  0.03721358  0.48359575  0.97303856    -1.30330
C523        C  0.01493919  0.14909195  0.69919313     0.03850
C524        C  0.98169115  0.15632240  0.70440894    -0.12300
C525        C  0.96701934  0.17079331  0.67712137     0.01350
C526        C  0.98087206  0.20020071  0.66574798    -0.10830
C527        C  0.01429900  0.19888993  0.65701999     0.03840
C528        C  0.03259595  0.17284332  0.67599449    -0.10250
H529        H  0.96706441  0.13967443  0.72083208     0.09430
H530        H  0.96554944  0.21771477  0.65221769     0.06960
H531        H  0.05711901  0.16674841  0.66735652     0.06810
O532        O  0.49444982  0.09309816  0.71000215    -0.74580
O533        O  0.04436776  0.10008783  0.72429164    -0.53480
C534        C  0.02146257  0.11189790  0.70632940     0.79150
O535        O  0.40998763  0.99634609  0.81054367    -0.59180
O536        O  0.39867443  0.45427283  0.77889189    -0.52210
C537        C  0.38899389  0.47674064  0.79777534     0.71170
O538        O  0.48511034  0.07437323  0.82001699    -0.73740
O539        O  0.03485399  0.08915525  0.79349429    -0.54300
C540        C  0.00893730  0.09650127  0.81197157     0.77170
O541        O  0.41565852  0.01386689  0.70217217    -0.58880
O542        O  0.40099665  0.46278150  0.71681599    -0.52000
C543        C  0.39375418  0.49145311  0.70259948     0.73760
Zr544      Zr  0.47043928  0.03784607  0.70977743     2.54710
O545        O  0.42910110  0.08045298  0.70148976    -0.79440
O546        O  0.49577219  0.04375843  0.65468721    -0.92860
Zr547      Zr  0.46458151  0.02149658  0.80499094     2.64680
O548        O  0.42412074  0.06485003  0.80322274    -0.97820
O549        O  0.46415653  0.00767733  0.86351107    -0.79880
O550        O  0.49039332  0.05130455  0.75910808    -0.83240
O551        O  0.44598851  0.00761269  0.75546353    -2.17940
O552        O  0.01923723  0.41517218  0.68723155    -0.66630
O553        O  0.47242866  0.40588954  0.71218111    -0.51190
C554        C  0.49701706  0.39587556  0.69325845     0.72140
O555        O  0.08258563  0.47070943  0.81830782    -0.59530
O556        O  0.09043396  0.02395854  0.79215112    -0.51510
C557        C  0.09993909  0.99906428  0.81161945     0.73950
O558        O  0.99714061  0.40737633  0.81533068    -0.70930
O559        O  0.45844045  0.39620862  0.78012455    -0.49600
C560        C  0.47775391  0.38701926  0.80293900     0.75330
O561        O  0.08086166  0.49907516  0.68170444    -0.66260
O562        O  0.09842287  0.03405568  0.71807256    -0.53460
C563        C  0.10561252  0.01634465  0.69333601     0.73710
Zr564      Zr  0.03339346  0.46982948  0.70446779     2.77540
O565        O  0.07498708  0.42885616  0.71801474    -0.97010
O566        O  0.03040158  0.48173349  0.64652472    -0.77830
Zr567      Zr  0.02911325  0.45685873  0.79933755     2.70070
O568        O  0.06790394  0.41116182  0.80157084    -0.79080
O569        O  0.01576538  0.47110355  0.85342353    -0.98160
Zr570      Zr  0.04800083  0.04448790  0.75452517     2.21500
Zr571      Zr  0.45184326  0.45013326  0.74821251     2.11130
O572        O  0.00783206  0.44197472  0.75096739    -2.46850
O573        O  0.05429010  0.48612440  0.75256894    -0.78870
O574        O  0.47879858  0.48043828  0.70131639    -0.71060
O575        O  0.01985775  0.01644762  0.80120960    -2.32020
O576        O  0.03021504  0.02665282  0.70430005    -2.28230
O577        O  0.47155288  0.46564727  0.79918200    -0.72820
H578        H  0.42358205  0.01433347  0.75629679     0.79170
H579        H  0.02723615  0.02451659  0.82078870     0.80260
H580        H  0.01283130  0.41895881  0.75045967     0.82490
H581        H  0.04127690  0.03872082  0.68570301     0.80090
H582        H  0.48329866  0.01884747  0.86960616     0.43130
H583        H  0.00065039  0.45399190  0.86218404     0.42100
H584        H  0.08893467  0.41929936  0.79196560     0.41780
H585        H  0.08397592  0.43549322  0.73803753     0.39710
H586        H  0.01115911  0.46996607  0.64227421     0.42840
H587        H  0.51346402  0.05919804  0.65397859     0.37630
H588        H  0.42561971  0.08982018  0.72302768     0.43740
H589        H  0.41544864  0.06522606  0.78126357     0.40160
H590        H  0.06394198  0.40836454  0.72566865     0.45080
H591        H  0.47934388  0.05729195  0.64414366     0.43800
H592        H  0.40648672  0.05692009  0.81898468     0.43940
H593        H  0.03683628  0.46655936  0.86276402     0.44290
C594        C  0.36065074  0.00173538  0.68849252     0.03850
C595        C  0.36274279  0.03423575  0.67591536    -0.12300
C596        C  0.36441391  0.03708912  0.64198593     0.01350
C597        C  0.33477049  0.03365003  0.63130163    -0.10830
C598        C  0.31892408  0.00474493  0.64249626     0.03840
C599        C  0.33449572  0.98587707  0.67178868    -0.10250
H600        H  0.37547263  0.05194519  0.68775472     0.09430
H601        H  0.33197383  0.04509278  0.60700189     0.06960
H602        H  0.33022531  0.96011941  0.67730992     0.06810
C603        C  0.99224567  0.36337419  0.67945251     0.03850
C604        C  0.96322299  0.34660265  0.68819382    -0.12300
C605        C  0.94818048  0.33419665  0.66225214     0.01350
C606        C  0.96869569  0.31386193  0.64420294    -0.10830
C607        C  0.99971999  0.32494554  0.63327085     0.03840
C608        C  0.01139323  0.35162497  0.65067673    -0.10250
H609        H  0.94733390  0.35434434  0.70842442     0.09430
H610        H  0.95744908  0.29661675  0.63030298     0.06960
H611        H  0.03265688  0.36444792  0.64064160     0.06810
C612        C  0.13995608  0.00718142  0.68329782     0.03850
C613        C  0.14695566  0.97403290  0.69277413    -0.12300
C614        C  0.16652034  0.95612314  0.67149699     0.01350
C615        C  0.19367854  0.97296105  0.65778343    -0.10830
C616        C  0.18810717  0.00507969  0.64350507     0.03840
C617        C  0.15990150  0.02253727  0.65635285    -0.10250
H618        H  0.13053757  0.96071988  0.71004263     0.09430
H619        H  0.21308888  0.95838525  0.64667830     0.06960
H620        H  0.15208338  0.04546299  0.64387505     0.06810
C621        C  0.48750203  0.35127795  0.81012721     0.03850
C622        C  0.52134428  0.34818660  0.80660999    -0.12300
C623        C  0.53591874  0.33560204  0.83458649     0.01350
C624        C  0.52479685  0.30456277  0.84385026    -0.10830
C625        C  0.49138142  0.30256053  0.85171675     0.03840
C626        C  0.47137365  0.32636420  0.83265481    -0.10250
H627        H  0.53463534  0.36588288  0.79024351     0.09430
H628        H  0.54114759  0.28735617  0.85618437     0.06960
H629        H  0.44615298  0.32997647  0.84047788     0.06810
C630        C  0.13344060  0.00169942  0.82497733     0.03850
C631        C  0.15213888  0.02665508  0.80813141    -0.12300
C632        C  0.16895725  0.04521804  0.82748033     0.01350
C633        C  0.18898981  0.02584885  0.84834070    -0.10830
C634        C  0.17660654  0.99730020  0.86606651     0.03840
C635        C  0.14625754  0.98631399  0.85528320    -0.10250
H636        H  0.14492531  0.03864330  0.78500298     0.09430
H637        H  0.20908557  0.03736696  0.85765549     0.06960
H638        H  0.13260345  0.96805290  0.87051325     0.06810
C639        C  0.00359388  0.13054255  0.82564710     0.03850
C640        C  0.97685232  0.14863174  0.81308999    -0.12300
C641        C  0.96037642  0.17177935  0.83233005     0.01350
C642        C  0.98106704  0.19097734  0.84699091    -0.10830
C643        C  0.00402502  0.17406399  0.86621173     0.03840
C644        C  0.01627094  0.14277919  0.85473764    -0.10250
H645        H  0.96385447  0.13849185  0.79447390     0.09430
H646        H  0.97145626  0.21447225  0.85379470     0.06960
H647        H  0.03313974  0.12781037  0.86890637     0.06810
C648        C  0.35312495  0.48566415  0.80401122     0.03850
C649        C  0.34908900  0.51988769  0.80101629    -0.12300
C650        C  0.33645980  0.53364712  0.82911662     0.01350
C651        C  0.30669406  0.52119824  0.83936691    -0.10830
C652        C  0.30741916  0.48732351  0.84769089     0.03840
C653        C  0.32934101  0.46818328  0.82669776    -0.10250
H654        H  0.36600521  0.53436104  0.78494828     0.09430
H655        H  0.29061547  0.53667992  0.85381474     0.06960
H656        H  0.33373439  0.44254487  0.83400937     0.06810
O657        O  0.19811743  0.48556863  0.58953020    -0.74580
O658        O  0.21972025  0.03578827  0.59843719    -0.53480
C659        C  0.20316719  0.01060640  0.60873749     0.79150
O660        O  0.31020033  0.40749692  0.50584918    -0.59180
O661        O  0.28897748  0.39926414  0.95030949    -0.52210
C662        C  0.30822242  0.39103033  0.97337192     0.71170
O663        O  0.30278591  0.47048411  0.59747175    -0.73740
O664        O  0.28338248  0.02162335  0.59834005    -0.54300
C665        C  0.29932412  0.99672425  0.61239523     0.77170
O666        O  0.19045521  0.40288752  0.52460326    -0.58880
O667        O  0.21729126  0.40403756  0.97054914    -0.52000
C668        C  0.19859839  0.39156091  0.99494039     0.73760
Zr669      Zr  0.20613516  0.45702981  0.53872293     2.54710
O670        O  0.21699136  0.41303950  0.58096937    -0.79440
O671        O  0.15064181  0.45341114  0.52432308    -0.92860
Zr672      Zr  0.29786502  0.45523152  0.53880109     2.64680
O673        O  0.28474832  0.41177722  0.58221128    -0.97820
O674        O  0.35299031  0.46473959  0.55070237    -0.79880
O675        O  0.25057855  0.48017809  0.55944209    -0.83240
O676        O  0.25338152  0.43422172  0.51459645    -2.17940
O677        O  0.18524559  0.01318816  0.91907061    -0.66630
O678        O  0.21228510  0.46527890  0.90599429    -0.51190
C679        C  0.19094763  0.48909415  0.89997700     0.72140
O680        O  0.32076920  0.08098091  0.97209315    -0.59530
O681        O  0.29176492  0.08293199  0.52326526    -0.51510
C682        C  0.31324804  0.09297283  0.49971821     0.73950
O683        O  0.30572719  0.00310492  0.90268672    -0.70930
O684        O  0.28148095  0.45588249  0.89576672    -0.49600
C685        C  0.29870030  0.48033765  0.88448865     0.75330
O686        O  0.20040591  0.08277257  0.99638691    -0.66260
O687        O  0.21998294  0.08912073  0.54571468    -0.53460
C688        C  0.20239235  0.09909602  0.52179603     0.73710
Zr689      Zr  0.20667657  0.03122418  0.96873479     2.77540
O690        O  0.22595373  0.06973571  0.92232274    -0.97010
O691        O  0.14921226  0.02505490  0.98195513    -0.77830
Zr692      Zr  0.29859908  0.02909280  0.95603287     2.70070
O693        O  0.30366914  0.07098797  0.91016609    -0.79080
O694        O  0.35027486  0.00858943  0.96834113    -0.98160
Zr695      Zr  0.25457706  0.03812552  0.54704936     2.21500
Zr696      Zr  0.25246643  0.44935066  0.95044230     2.11130
O697        O  0.25116564  0.00707828  0.94075606    -2.46850
O698        O  0.25368947  0.05270384  0.98550336    -0.78870
O699        O  0.20741418  0.47317339  0.97967310    -0.71060
O700        O  0.30153969  0.01185870  0.52232344    -2.32020
O701        O  0.20713370  0.01610854  0.52766256    -2.28230
O702        O  0.30087996  0.47170975  0.96870770    -0.72820
H703        H  0.25298372  0.41098505  0.52052392     0.79170
H704        H  0.32020088  0.02073405  0.53045024     0.80260
H705        H  0.24946069  0.01124465  0.91741659     0.82490
H706        H  0.18790579  0.02621858  0.53754476     0.80090
H707        H  0.35293490  0.48758509  0.55640068     0.43130
H708        H  0.35796932  0.99772436  0.94854584     0.42100
H709        H  0.29642971  0.09200891  0.91869938     0.41780
H710        H  0.24250984  0.08286794  0.93070185     0.39710
H711        H  0.14320321  0.00743798  0.96890331     0.42840
H712        H  0.14157329  0.47584010  0.52323711     0.37630
H713        H  0.22360618  0.42406263  0.59987946     0.43740
H714        H  0.28316704  0.39150133  0.57126730     0.40160
H715        H  0.23677240  0.05929031  0.90347224     0.45080
H716        H  0.13773358  0.44061463  0.54181424     0.43800
H717        H  0.30327800  0.40810845  0.59613947     0.43940
H718        H  0.35924159  0.03054542  0.96643614     0.44290
O719        O  0.48464185  0.31349814  0.58036784    -0.74580
O720        O  0.03474320  0.29292851  0.59437596    -0.53480
C721        C  0.01023582  0.31330562  0.59897008     0.79150
O722        O  0.42096923  0.18546573  0.52062730    -0.59180
O723        O  0.41481821  0.20319193  0.97157456    -0.52210
C724        C  0.40776845  0.18413599  0.99809505     0.71170
O725        O  0.49499563  0.19631524  0.59926777    -0.73740
O726        O  0.04511183  0.22610681  0.60717768    -0.54300
C727        C  0.01999754  0.21060865  0.61987732     0.77170
O728        O  0.42276877  0.29799885  0.49390816    -0.58880
O729        O  0.41015432  0.27662656  0.95307047    -0.52000
C730        C  0.40229374  0.29621838  0.97548331     0.73760
Zr731      Zr  0.46958436  0.29558202  0.52802642     2.54710
O732        O  0.42771893  0.28154425  0.57226253    -0.79440
O733        O  0.48351980  0.35311435  0.52069870    -0.92860
Zr734      Zr  0.47197417  0.20332867  0.54372455     2.64680
O735        O  0.43283548  0.20968311  0.58956744    -0.97820
O736        O  0.48991819  0.14853972  0.55082671    -0.79880
O737        O  0.49321659  0.25157722  0.55820343    -0.83240
O738        O  0.44836317  0.24702833  0.51224456    -2.17940
O739        O  0.00763252  0.29906683  0.90667704    -0.66630
O740        O  0.46316256  0.27084262  0.89943088    -0.51190
C741        C  0.48584272  0.29020290  0.88810634     0.72140
O742        O  0.08966440  0.17792611  0.00131769    -0.59530
O743        O  0.09844161  0.21355162  0.54271248    -0.51510
C744        C  0.10545624  0.18757500  0.52665055     0.73950
O745        O  0.03249638  0.18304018  0.91580584    -0.70930
O746        O  0.48190250  0.20437001  0.91137465    -0.49600
C747        C  0.50676476  0.18680700  0.90044435     0.75330
O748        O  0.08674265  0.30774731  0.97864181    -0.66260
O749        O  0.09815865  0.28894193  0.53430000    -0.53460
C750        C  0.10618531  0.30314197  0.50539912     0.73710
Zr751      Zr  0.03537806  0.29321302  0.95846890     2.77540
O752        O  0.07554121  0.28938138  0.91211858    -0.97010
O753        O  0.02225627  0.35106388  0.95242815    -0.77830
Zr754      Zr  0.04272190  0.19933751  0.97157110     2.70070
O755        O  0.08569932  0.21572464  0.93097506    -0.79080
O756        O  0.01732740  0.14756597  0.97229754    -0.98160
Zr757      Zr  0.05074794  0.25407873  0.55019895     2.21500
Zr758      Zr  0.46014467  0.24119645  0.95504786     2.11130
O759        O  0.01690123  0.24404563  0.94370883    -2.46850
O760        O  0.06126903  0.24871755  0.98773794    -0.78870
O761        O  0.47989480  0.29135637  0.97219935    -0.71060
O762        O  0.02843469  0.20434638  0.53637001    -2.32020
O763        O  0.02669854  0.29900755  0.51658336    -2.28230
O764        O  0.48649083  0.19759181  0.98580352    -0.72820
H765        H  0.42561001  0.24584317  0.51887840     0.79170
H766        H  0.03816185  0.18651548  0.54950673     0.80260
H767        H  0.02279903  0.24324220  0.92053919     0.82490
H768        H  0.03553243  0.31931303  0.52140887     0.80090
H769        H  0.51024299  0.14854993  0.56169358     0.43130
H770        H  0.00535703  0.14354847  0.99400092     0.42100
H771        H  0.09859638  0.23125709  0.94128426     0.41780
H772        H  0.07080191  0.26937509  0.90187729     0.39710
H773        H  0.99845783  0.35261687  0.95568195     0.42840
H774        H  0.49765042  0.35576721  0.50026546     0.37630
H775        H  0.43927709  0.27023668  0.59049942     0.43740
H776        H  0.41213615  0.21403214  0.57928282     0.40160
H777        H  0.06968166  0.30716208  0.89553717     0.45080
H778        H  0.49827319  0.35636011  0.53797438     0.43800
H779        H  0.43191808  0.18776487  0.60156621     0.43940
H780        H  0.00046270  0.15106873  0.95656005     0.44290
C781        C  0.18685529  0.13398859  0.51768707     0.03850
C782        C  0.15667228  0.14592288  0.53387560    -0.12300
C783        C  0.14036811  0.17570306  0.52012399     0.01350
C784        C  0.15265002  0.18882882  0.48887025    -0.10830
C785        C  0.17257919  0.16893690  0.46983030     0.03840
C786        C  0.19679286  0.15178642  0.48759517    -0.10250
H787        H  0.14525120  0.13153664  0.55470063     0.09430
H788        H  0.13908241  0.20821614  0.47586688     0.06960
H789        H  0.21743000  0.14221637  0.47327849     0.06810
C790        C  0.18363882  0.35601064  0.49297171     0.03850
C791        C  0.19400040  0.34332370  0.46273940    -0.12300
C792        C  0.16578488  0.34080259  0.94003952     0.01350
C793        C  0.15173630  0.30944836  0.46348724    -0.10830
C794        C  0.13945295  0.31627987  0.49566866     0.03840
C795        C  0.15509831  0.34180100  0.51024612    -0.10250
H796        H  0.21242782  0.35829963  0.94213303     0.09430
H797        H  0.13710403  0.29861985  0.94449330     0.06960
H798        H  0.14429467  0.35172888  0.53228653     0.06810
C799        C  0.32703721  0.12739274  0.50191451     0.03850
C800        C  0.31076301  0.14511350  0.52650052    -0.12300
C801        C  0.33155512  0.16224204  0.04779867     0.01350
C802        C  0.35163343  0.18175725  0.52824261    -0.10830
C803        C  0.37017320  0.17030408  0.50098625     0.03840
C804        C  0.35806295  0.14094255  0.48820297    -0.10250
H805        H  0.28908371  0.14016857  0.03674620     0.09430
H806        H  0.36109460  0.20104230  0.54092529     0.06960
H807        H  0.37300126  0.12806577  0.47044291     0.06810
C808        C  0.36787233  0.31147141  0.98133055     0.03850
C809        C  0.35512425  0.30352533  0.01401615    -0.12300
C810        C  0.34098497  0.32954573  0.03029752     0.01350
C811        C  0.31542950  0.34354821  0.01297370    -0.10830
C812        C  0.32343699  0.35623802  0.98015118     0.03840
C813        C  0.35209415  0.34025484  0.96402249    -0.10250
H814        H  0.36679176  0.28411963  0.02904094     0.09430
H815        H  0.29593204  0.35515092  0.02724142     0.06870
H816        H  0.36298837  0.35111044  0.94094588     0.06810
C817        C  0.39770412  0.34697676  0.03217698     0.24310
C818        C  0.36512164  0.35422488  0.03862870    -0.23800
C819        C  0.35720965  0.38728630  0.03351552     0.19220
C820        C  0.37523267  0.40710428  0.00948247     0.24250
C821        C  0.40623694  0.39747986  0.99892547    -0.23740
C822        C  0.41611870  0.36594253  0.00771717     0.19160
F823        F  0.44628501  0.36081727  0.47522869    -0.13700
F824        F  0.42550498  0.33117233  0.53769067    -0.16060
F825        F  0.36258593  0.43463539  0.99414594    -0.16060
F826        F  0.33070196  0.39898668  0.04986208    -0.13700
C827        C  0.35798271  0.08620752  0.06560299     0.24310
C828        C  0.38956441  0.09745468  0.05801091    -0.23800
C829        C  0.40209222  0.12886479  0.56017470     0.19220
C830        C  0.37682406  0.14376330  0.57887996     0.24250
C831        C  0.34122212  0.14074758  0.07806498    -0.23740
C832        C  0.33412546  0.10735969  0.07903274     0.19160
F833        F  0.30318989  0.09780124  0.08460343    -0.13700
F834        F  0.34988884  0.05639746  0.05802275    -0.16060
F835        F  0.38132338  0.16920181  0.59642903    -0.16060
F836        F  0.43189078  0.14017784  0.56004262    -0.13700
C837        C  0.16164089  0.39432038  0.42758584     0.24310
C838        C  0.14960529  0.36245190  0.42956649    -0.23800
C839        C  0.11113929  0.36747108  0.93617926     0.19220
C840        C  0.09586154  0.38627063  0.95969786     0.24250
C841        C  0.11411380  0.41165012  0.46118486    -0.23740
C842        C  0.14421457  0.41866660  0.44429554     0.19160
F843        F  0.15786943  0.44758154  0.44639458    -0.13700
F844        F  0.19194409  0.40001950  0.41427982    -0.16060
F845        F  0.06815549  0.37564668  0.97574478    -0.16060
F846        F  0.09550958  0.34301171  0.92548040    -0.13700
C847        C  0.13590425  0.10075069  0.47593999     0.24310
C848        C  0.10385863  0.11135963  0.47505646    -0.23800
C849        C  0.09523638  0.13616807  0.95070898     0.19220
C850        C  0.12126543  0.15534462  0.93558908     0.24250
C851        C  0.15533842  0.14936212  0.44674132    -0.23740
C852        C  0.15901500  0.11628261  0.45381940     0.19160
F853        F  0.18699839  0.10228443  0.44429105    -0.13700
F854        F  0.14375877  0.07430638  0.49573663    -0.16060
F855        F  0.11795781  0.17220601  0.90590725    -0.16060
F856        F  0.06738963  0.13600647  0.93588257    -0.13700
C857        C  0.38107502  0.06161787  0.90023026     0.24310
C858        C  0.39819284  0.53183626  0.90963591    -0.23800
C859        C  0.39487754  0.50400270  0.89467644     0.19220
C860        C  0.37469534  0.50379148  0.87043141     0.24250
C861        C  0.35887108  0.53314478  0.85680668    -0.23740
C862        C  0.36254349  0.06227416  0.87263886     0.19160
F863        F  0.34820586  0.09071870  0.86098542    -0.13700
F864        F  0.38257443  0.08856837  0.91689865    -0.16060
F865        F  0.37166235  0.47297566  0.86334411    -0.16060
F866        F  0.41032044  0.47546438  0.90522027    -0.13700
C867        C  0.42823885  0.16877070  0.88783124     0.24310
C868        C  0.93137309  0.16000280  0.85479320    -0.23800
C869        C  0.92544402  0.12699679  0.85411928     0.19220
C870        C  0.94105153  0.10531703  0.87669133     0.24250
C871        C  0.95170618  0.11679305  0.90565610    -0.23740
C872        C  0.44070565  0.14712597  0.91300524     0.19160
F873        F  0.44433158  0.15732846  0.94296555    -0.13700
F874        F  0.42083137  0.20031980  0.89328102    -0.16060
F875        F  0.94560584  0.07391220  0.87008576    -0.16060
F876        F  0.91423648  0.11663609  0.82681905    -0.13700
C877        C  0.13271557  0.56544198  0.90072092     0.24310
C878        C  0.10145739  0.05942858  0.89433751    -0.23800
C879        C  0.09213145  0.06808492  0.86195210     0.19220
C880        C  0.11582193  0.07645175  0.83641665     0.24250
C881        C  0.14877898  0.07236727  0.84284827    -0.23740
C882        C  0.15466386  0.57647132  0.87487330     0.19160
F883        F  0.18463919  0.58470348  0.88086176    -0.13700
F884        F  0.14327977  0.55861210  0.93063675    -0.16060
F885        F  0.10717848  0.08314856  0.80507242    -0.16060
F886        F  0.06103636  0.06639902  0.85451315    -0.13700
C887        C  0.06286660  0.37731146  0.86542238     0.24310
C888        C  0.53522806  0.35945068  0.86122421    -0.23800
C889        C  0.50599201  0.36946431  0.87914081     0.19220
C890        C  0.50419142  0.39635301  0.89637113     0.24250
C891        C  0.53128493  0.41328714  0.89986679    -0.23740
C892        C  0.06110623  0.40411965  0.88494843     0.19160
F893        F  0.08797285  0.42085857  0.88848752    -0.13700
F894        F  0.09165298  0.36842125  0.85040765    -0.16060
F895        F  0.47532274  0.40490945  0.91189078    -0.16060
F896        F  0.47767503  0.35462392  0.88229846    -0.13700
C897        C  0.08911707  0.44047007  0.62723871     0.24310
C898        C  0.10014693  0.96613315  0.61049916    -0.23800
C899        C  0.13252702  0.97280064  0.60396037     0.19220
C900        C  0.15464715  0.94852112  0.61461006     0.24250
C901        C  0.14937164  0.93756382  0.64771994    -0.23740
C902        C  0.11197790  0.42731264  0.64963577     0.19160
F903        F  0.10438841  0.40201952  0.67200965    -0.13700
F904        F  0.05924584  0.42803733  0.62886624    -0.16060
F905        F  0.15896113  0.92411258  0.59448577    -0.16060
F906        F  0.14164977  0.99940009  0.58388836    -0.13700
C907        C  0.96297478  0.40191917  0.62303940     0.24310
C908        C  0.96689318  0.39274436  0.59040689    -0.23800
C909        C  0.44950944  0.38087020  0.58823974     0.19220
C910        C  0.43023986  0.35967314  0.60986980     0.24250
C911        C  0.92849557  0.35896743  0.64127308    -0.23740
C912        C  0.93672543  0.39083189  0.64406003     0.19160
F913        F  0.92829205  0.40452131  0.67252842    -0.13700
F914        F  0.98344674  0.42244169  0.63421861    -0.16060
F915        F  0.41243032  0.33672026  0.59870806    -0.16060
F916        F  0.44528627  0.38391956  0.55597642    -0.13700
C917        C  0.44552659  0.00311204  0.61543562     0.24310
C918        C  0.43633657  0.98641434  0.59003220    -0.23800
C919        C  0.40949895  0.46354524  0.59990397     0.19220
C920        C  0.38460851  0.48130371  0.61432570     0.24250
C921        C  0.38967460  0.01490879  0.62669971    -0.23740
C922        C  0.42168978  0.02175812  0.63073539     0.19160
F923        F  0.42891558  0.04442438  0.65043674    -0.13700
F924        F  0.47619285  0.00172559  0.62351143    -0.16060
F925        F  0.35717819  0.46509873  0.61697666    -0.16060
F926        F  0.40350185  0.43669484  0.58450649    -0.13700
C927        C  0.43901112  0.12661669  0.64338921     0.24310
C928        C  0.96444176  0.14674659  0.65160832    -0.23800
C929        C  0.99279414  0.13344725  0.63500876     0.19220
C930        C  0.99360331  0.10375424  0.62384986     0.24250
C931        C  0.96519567  0.09038334  0.61802935    -0.23740
C932        C  0.44117103  0.10547231  0.61817534     0.19160
F933        F  0.41465189  0.08991477  0.61147837    -0.13700
F934        F  0.40970800  0.13520286  0.65746896    -0.16060
F935        F  0.02257418  0.09193689  0.61098192    -0.16060
F936        F  0.02075631  0.14789918  0.62593526    -0.13700
O937        O  0.47751924  0.58421811  0.06545623    -0.85770
O938        O  0.49510126  0.90605704  0.05536448    -0.85940
O939        O  0.44960062  0.97519629  0.10275214    -0.87610
O940        O  0.04945238  0.49018349  0.09951810    -0.86360
O941        O  0.08818845  0.49039961  0.05703159    -0.85950
O942        O  0.41154979  0.97778900  0.06489027    -0.87320
O943        O  0.49140935  0.94027460  0.09611360    -0.85800
O944        O  0.46478063  0.53813252  0.09776507    -0.85390
Zr945      Zr  0.49847996  0.49584038  0.07387174     2.84310
O946        O  0.03700820  0.97250186  0.03820655    -1.07370
O947        O  0.46731037  0.53093699  0.04205504    -1.08090
C948        C  0.46583852  0.56896608  0.09227160     1.07340
C949        C  0.48680931  0.91258827  0.08532537     1.07280
C950        C  0.42137848  0.96913166  0.09390626     1.10260
C951        C  0.07810026  0.48345939  0.08744980     1.08040
H952        H  0.45859765  0.95005414  0.04782021     0.33600
O953        O  0.47253364  0.96683832  0.03820211    -1.28320
H954        H  0.03905761  0.55097194  0.05865055     0.33270
O955        O  0.02812795  0.53861394  0.04397713    -1.30000
O956        O  0.02772757  0.92309734  0.45353067    -0.85770
O957        O  0.98273607  0.60887341  0.44712383    -0.87260
O958        O  0.42306249  0.96000434  0.47816988    -0.85840
O959        O  0.09826819  0.96784711  0.98693842    -0.85890
O960        O  0.08555515  0.56536321  0.01269828    -0.85610
O961        O  0.41630618  0.55468474  0.51470388    -0.85410
O962        O  0.45785258  0.03630861  0.40707329    -0.85780
O963        O  0.06093924  0.54254835  0.40028356    -0.85240
O964        O  0.41650195  0.03355282  0.44611781    -0.86310
O965        O  0.09862636  0.53612671  0.43876612    -0.85470
O966        O  0.46078237  0.91423736  0.99460319    -0.85860
O967        O  0.45120886  0.59550422  0.51794020    -0.85590
O968        O  0.05631400  0.59958814  0.47588679    -0.85240
O969        O  0.06662276  0.92551706  0.00629534    -0.85640
O970        O  0.01782893  0.96665778  0.41645532    -0.85940
O971        O  0.99244482  0.57635624  0.40424265    -0.87280
Zr972      Zr  0.00978954  0.94274501  0.00414238     2.83100
Zr973      Zr  0.50571439  0.57826190  0.49470366     2.83500
Zr974      Zr  0.44411349  0.01064254  0.49115948     2.84090
Zr975      Zr  0.06517296  0.51307261  0.00648654     2.83360
Zr976      Zr  0.00391595  0.01756925  0.44220873     2.84220
O977        O  0.03969689  0.55019971  0.46274682    -1.07850
O978        O  0.47913611  0.98128855  0.45661038    -1.07350
C979        C  0.02760635  0.93691648  0.42438383     1.07310
C980        C  0.97902532  0.60161789  0.41710786     1.09930
C981        C  0.43381269  0.93034912  0.48205394     1.07480
C982        C  0.09126049  0.93743610  0.98871902     1.07840
C983        C  0.07575305  0.59176727  0.99698555     1.07420
C984        C  0.42319734  0.58236174  0.52413595     1.06980
C985        C  0.42816953  0.04022918  0.41696619     1.07400
C986        C  0.08962104  0.54551966  0.40936440     1.06910
H987        H  0.45778341  0.56492964  0.45904805     0.33590
O988        O  0.47450175  0.54957379  0.46522502    -1.28950
H989        H  0.05422141  0.97609775  0.45642754     0.33620
O990        O  0.03833226  0.98389781  0.47237607    -1.30330
C991        C  0.01852254  0.64746820  0.19584155     0.03850
C992        C  0.98562232  0.65585517  0.20198583    -0.12300
C993        C  0.97041637  0.67057949  0.17511305     0.01350
C994        C  0.98521004  0.69900906  0.16199936    -0.10830
C995        C  0.01851908  0.69635506  0.15288815     0.03840
C996        C  0.03633034  0.66998965  0.17167227    -0.10250
H997        H  0.97096967  0.63976651  0.21901768     0.09430
H998        H  0.97026812  0.71643552  0.14790020     0.06960
H999        H  0.06040043  0.66286150  0.16249782     0.06810
O1000       O  0.50211774  0.59293525  0.19564995    -0.74580
O1001       O  0.04756837  0.59862116  0.22124386    -0.53480
C1002       C  0.02436566  0.61038424  0.20365871     0.79150
O1003       O  0.41337869  0.49851906  0.30613347    -0.59180
O1004       O  0.40500749  0.95295809  0.27959815    -0.52210
C1005       C  0.39437000  0.97521853  0.29862069     0.71170
O1006       O  0.48903233  0.57930682  0.31126596    -0.73740
O1007       O  0.03942673  0.58924668  0.29070072    -0.54300
C1008       C  0.01305075  0.59734646  0.30809415     0.77170
O1009       O  0.42287395  0.52725909  0.18213415    -0.58880
O1010       O  0.41117044  0.97865803  0.21240983    -0.52000
C1011       C  0.40228297  0.00349964  0.19170563     0.73760
Zr1012     Zr  0.47662924  0.53841147  0.20244100     2.54710
O1013       O  0.43313279  0.57916518  0.20180227    -0.79440
O1014       O  0.50063252  0.52076788  0.15170540    -0.92860
Zr1015     Zr  0.46736452  0.52592619  0.29788856     2.64680
O1016       O  0.42336630  0.56596281  0.29761349    -0.97820
O1017       O  0.47108213  0.51315898  0.35547873    -0.79880
O1018       O  0.49488706  0.55375695  0.25184414    -0.83240
O1019       O  0.45078860  0.50966227  0.24861883    -2.17940
O1020       O  0.03214128  0.91163331  0.18997344    -0.66630
O1021       O  0.48157748  0.90346450  0.21338122    -0.51190
C1022       C  0.50727962  0.89294264  0.19551524     0.72140
O1023       O  0.08512445  0.97189435  0.31995779    -0.59530
O1024       O  0.09454617  0.52223056  0.29070981    -0.51510
C1025       C  0.10373582  0.49679609  0.31005352     0.73950
O1026       O  0.00098216  0.90799350  0.31477381    -0.70930
O1027       O  0.46154558  0.89816697  0.27907889    -0.49600
C1028       C  0.48261014  0.88848126  0.30008249     0.75330
O1029       O  0.08746633  0.99902292  0.18097508    -0.66260
O1030       O  0.10132701  0.53343031  0.21526561    -0.53460
C1031       C  0.10812460  0.51570697  0.19051034     0.73710
Zr1032     Zr  0.04141183  0.96796837  0.20523435     2.77540
O1033       O  0.08445091  0.92965867  0.22171056    -0.97010
O1034       O  0.03049129  0.96102765  0.14991300    -0.77830
Zr1035     Zr  0.03181951  0.95859143  0.30040942     2.70070
O1036       O  0.06997709  0.91260891  0.30557323    -0.79080
O1037       O  0.01626366  0.97386311  0.35357359    -0.98160
Zr1038     Zr  0.05159020  0.54361640  0.25243977     2.21500
Zr1039     Zr  0.45739682  0.95172459  0.24572339     2.11130
O1040       O  0.01398292  0.94201189  0.25152720    -2.46850
O1041       O  0.05908711  0.98619509  0.25406906    -0.78870
O1042       O  0.48419211  0.98085246  0.19936295    -0.71060
O1043       O  0.02339158  0.51562618  0.29857047    -2.32020
O1044       O  0.03219820  0.52600754  0.20268371    -2.28230
O1045       O  0.47663867  0.96878468  0.29579406    -0.72820
H1046       H  0.42829393  0.51612291  0.24843928     0.79170
H1047       H  0.03156679  0.52445737  0.31739779     0.80260
H1048       H  0.01938705  0.91899598  0.25232063     0.82490
H1049       H  0.04300396  0.53808293  0.18392746     0.80090
H1050       H  0.49032683  0.52523330  0.35975445     0.43130
H1051       H  0.00157867  0.95631384  0.36224521     0.42100
H1052       H  0.09071440  0.91960297  0.29421152     0.41780
H1053       H  0.09354104  0.93865283  0.24055642     0.39710
H1054       H  0.00724023  0.96449732  0.14825905     0.42840
H1055       H  0.50699357  0.53993139  0.13708228     0.37630
H1056       H  0.43479868  0.59020000  0.22217906     0.43740
H1057       H  0.41196925  0.56307042  0.27767381     0.40160
H1058       H  0.07392064  0.90956905  0.23163713     0.45080
H1059       H  0.48203703  0.51123253  0.14292068     0.43800
H1060       H  0.40828543  0.55842531  0.31627423     0.43940
H1061       H  0.03734241  0.96981667  0.36305623     0.44290
C1062       C  0.36943400  0.50234052  0.17667970     0.03850
C1063       C  0.34780227  0.48063736  0.19472307    -0.12300
C1064       C  0.33183740  0.45954271  0.17632409     0.01350
C1065       C  0.31477510  0.47605694  0.15133427    -0.10830
C1066       C  0.33005122  0.50127940  0.13106534     0.03840
C1067       C  0.35967742  0.51346186  0.14325632    -0.10250
H1068       H  0.35312006  0.47147815  0.21950475     0.09430
H1069       H  0.29571614  0.46317095  0.14166950     0.06960
H1070       H  0.37532511  0.52897821  0.12683588     0.06810
C1071       C  0.00667706  0.85903620  0.18206520     0.03850
C1072       C  0.98200054  0.83822353  0.19599671    -0.12300
C1073       C  0.96412999  0.82335706  0.17346516     0.01350
C1074       C  0.98363500  0.80508412  0.15240880    -0.10830
C1075       C  0.01058843  0.82027643  0.13551974     0.03840
C1076       C  0.02171605  0.84925732  0.15015449    -0.10250
H1077       H  0.96940653  0.84392304  0.21904611     0.09430
H1078       H  0.97229708  0.78581688  0.14137712     0.06960
H1079       H  0.03912391  0.86481916  0.13616715     0.06810
C1080       C  0.14247189  0.50662375  0.18028576     0.03850
C1081       C  0.14968276  0.47358979  0.18990351    -0.12300
C1082       C  0.16927783  0.45576892  0.16860692     0.01350
C1083       C  0.19645271  0.47261926  0.15496909    -0.10830
C1084       C  0.19103298  0.50486743  0.14090774     0.03840
C1085       C  0.16263484  0.52219486  0.15361226    -0.10250
H1086       H  0.13327038  0.46019998  0.20714366     0.09430
H1087       H  0.21589303  0.45806174  0.14388734     0.06960
H1088       H  0.15487007  0.54517566  0.14120457     0.06810
C1089       C  0.49035844  0.85227817  0.30894424     0.03850
C1090       C  0.52402262  0.84678843  0.30527491    -0.12300
C1091       C  0.53806929  0.83390899  0.33343241     0.01350
C1092       C  0.52524937  0.80378762  0.34359404    -0.10830
C1093       C  0.49168482  0.80349474  0.35118124     0.03840
C1094       C  0.47292053  0.82861623  0.33204020    -0.10250
H1095       H  0.53849944  0.86327069  0.28855725     0.09430
H1096       H  0.54081648  0.78598794  0.35624353     0.06960
H1097       H  0.44795040  0.83374147  0.33983989     0.06810
C1098       C  0.13769274  0.49781719  0.32361128     0.03850
C1099       C  0.15822053  0.51993380  0.30506278    -0.12300
C1100       C  0.17732267  0.53816650  0.32259514     0.01350
C1101       C  0.19551001  0.51915986  0.34569865    -0.10830
C1102       C  0.18154333  0.49212812  0.36485026     0.03840
C1103       C  0.14999067  0.48307538  0.35468604    -0.10250
H1104       H  0.15127634  0.53102664  0.28145739     0.09430
H1105       H  0.21598381  0.53026732  0.35468149     0.06960
H1106       H  0.13506333  0.46679721  0.37100573     0.06810
C1107       C  0.00799778  0.63150754  0.32247198     0.03850
C1108       C  0.98300356  0.65134418  0.30845885    -0.12300
C1109       C  0.96606118  0.67474212  0.32734982     0.01350
C1110       C  0.98605209  0.69206515  0.34484351    -0.10830
C1111       C  0.00596364  0.67310957  0.36591265     0.03840
C1112       C  0.01846094  0.64206430  0.35356013    -0.10250
H1113       H  0.97100580  0.64236265  0.28849594     0.09430
H1114       H  0.97674962  0.71560066  0.35183581     0.06960
H1115       H  0.03351205  0.62578607  0.36860987     0.06810
C1116       C  0.35783720  0.97994718  0.30825208     0.03850
C1117       C  0.34815805  0.01301858  0.30273768    -0.12300
C1118       C  0.33234409  0.02707691  0.32939574     0.01350
C1119       C  0.30553720  0.01033757  0.34249093    -0.10830
C1120       C  0.31144240  0.97738647  0.35278319     0.03840
C1121       C  0.33701072  0.96051278  0.33279021    -0.10250
H1122       H  0.36312276  0.02901898  0.28598723     0.09430
H1123       H  0.28775106  0.02425792  0.35675888     0.06960
H1124       H  0.34532311  0.93626637  0.34156065     0.06810
O1125       O  0.20240110  0.98752027  0.08857920    -0.74580
O1126       O  0.22300802  0.53570299  0.09604162    -0.53480
C1127       C  0.20629655  0.51051165  0.10620632     0.79150
O1128       O  0.31073532  0.91052969  0.99620391    -0.59180
O1129       O  0.28986321  0.89667821  0.45796471    -0.52210
C1130       C  0.30793144  0.88856818  0.48199044     0.71170
O1131       O  0.32221689  0.98092774  0.07815924    -0.73740
O1132       O  0.29576915  0.52873815  0.08882510    -0.54300
C1133       C  0.31683163  0.50529383  0.09625217     0.77170
O1134       O  0.19192515  0.90618093  0.02226613    -0.58880
O1135       O  0.21650674  0.90136016  0.47483233    -0.52000
C1136       C  0.19653901  0.88951730  0.49843758     0.73760
Zr1137     Zr  0.20957856  0.95977611  0.03728804     2.54710
O1138       O  0.21572198  0.91365344  0.07862311    -0.79440
O1139       O  0.15285682  0.96323987  0.02597269    -0.92860
Zr1140     Zr  0.30202569  0.96076431  0.02735576     2.64680
O1141       O  0.27753884  0.92687030  0.07385724    -0.97820
O1142       O  0.35813825  0.96983590  0.03624722    -0.79880
O1143       O  0.25623224  0.98330842  0.05453375    -0.83240
O1144       O  0.25565472  0.93806210  0.00907154    -2.17940
O1145       O  0.19045162  0.50950147  0.41748451    -0.66630
O1146       O  0.21434824  0.96267166  0.40965928    -0.51190
C1147       C  0.19443715  0.98750870  0.40196781     0.72140
O1148       O  0.32259133  0.57491592  0.47656370    -0.59530
O1149       O  0.29427409  0.58554493  0.02259135    -0.51510
C1150       C  0.31432384  0.59647503  0.99836072     0.73950
O1151       O  0.31148398  0.49539841  0.40796452    -0.70930
O1152       O  0.28395400  0.94888390  0.40215135    -0.49600
C1153       C  0.30263248  0.97201770  0.39030614     0.75330
O1154       O  0.20061584  0.58077920  0.49493630    -0.66260
O1155       O  0.22330509  0.59288076  0.04172565    -0.53460
C1156       C  0.20452181  0.60171280  0.01848096     0.73710
Zr1157     Zr  0.20927268  0.52779888  0.46840710     2.77540
O1158       O  0.22553540  0.56365222  0.41993379    -0.97010
O1159       O  0.15206196  0.51640857  0.47750018    -0.77830
Zr1160     Zr  0.30374271  0.52110989  0.46257546     2.70070
O1161       O  0.31210013  0.56240699  0.41668204    -0.79080
O1162       O  0.35852909  0.50305370  0.47057593    -0.98160
Zr1163     Zr  0.25682121  0.54117991  0.04366929     2.21500
Zr1164     Zr  0.25307754  0.94590393  0.45614095     2.11130
O1165       O  0.25582866  0.50250382  0.44418253    -2.46850
O1166       O  0.25661483  0.54695126  0.48729594    -0.78870
O1167       O  0.20778375  0.97186871  0.48225604    -0.71060
O1168       O  0.30138587  0.51769031  0.01367032    -2.32020
O1169       O  0.20877612  0.51750016  0.02613469    -2.28230
O1170       O  0.30107149  0.96443545  0.47941765    -0.72820
H1171       H  0.25573273  0.91480160  0.01495514     0.79170
H1172       H  0.32067438  0.52672075  0.02036056     0.80260
H1173       H  0.25582459  0.50685828  0.42066989     0.82490
H1174       H  0.18976216  0.52678730  0.03725160     0.80090
H1175       H  0.36350019  0.99182364  0.02597310     0.43130
H1176       H  0.36835292  0.50273892  0.44782307     0.42100
H1177       H  0.29877572  0.58185170  0.42215832     0.41780
H1178       H  0.24496093  0.57417926  0.42606442     0.39710
H1179       H  0.14693854  0.50399884  0.45908211     0.42840
H1180       H  0.14511587  0.98534574  0.03068240     0.37630
H1181       H  0.21992734  0.92332154  0.09920331     0.43740
H1182       H  0.27919197  0.90348932  0.06983664     0.40160
H1183       H  0.23353510  0.55064904  0.40169213     0.45080
H1184       H  0.14068779  0.94796443  0.04184288     0.43800
H1185       H  0.29004468  0.92957861  0.09292411     0.43940
H1186       H  0.36767940  0.52172486  0.48001825     0.44290
O1187       O  0.49156928  0.81199680  0.08193057    -0.74580
O1188       O  0.04174420  0.79067801  0.09183484    -0.53480
C1189       C  0.01640419  0.80877668  0.10022899     0.79150
O1190       O  0.42597798  0.68053679  0.02337349    -0.59180
O1191       O  0.41291798  0.70197439  0.46817572    -0.52210
C1192       C  0.40448859  0.68521720  0.49581962     0.71170
O1193       O  0.50163348  0.70037821  0.09755314    -0.73740
O1194       O  0.04926257  0.72321685  0.10334065    -0.54300
C1195       C  0.02435290  0.70736508  0.11579410     0.77170
O1196       O  0.42166525  0.79958068  0.99814284    -0.58880
O1197       O  0.40723726  0.77569242  0.45121694    -0.52000
C1198       C  0.40133187  0.79580548  0.47347837     0.73760
Zr1199     Zr  0.47173065  0.79376527  0.03042173     2.54710
O1200       O  0.43601951  0.77681123  0.07877115    -0.79440
O1201       O  0.48801484  0.85045706  0.02263902    -0.92860
Zr1202     Zr  0.47693758  0.70039601  0.04378210     2.64680
O1203       O  0.43693726  0.70642524  0.08919141    -0.97820
O1204       O  0.48953260  0.64302145  0.05344830    -0.79880
O1205       O  0.49810432  0.74915500  0.05737756    -0.83240
O1206       O  0.45135232  0.74484242  0.01437805    -2.17940
O1207       O  0.00773325  0.79640187  0.40782228    -0.66630
O1208       O  0.46215978  0.77168911  0.39829417    -0.51190
C1209       C  0.48547053  0.79051250  0.38746736     0.72140
O1210       O  0.08877204  0.67609017  0.50121429    -0.59530
O1211       O  0.10225462  0.71336929  0.03891764    -0.51510
C1212       C  0.10883488  0.68874081  0.02130800     0.73950
O1213       O  0.02735205  0.67578401  0.42089188    -0.70930
O1214       O  0.48220349  0.70554845  0.40939086    -0.49600
C1215       C  0.50636200  0.68577213  0.40091707     0.75330
O1216       O  0.08584807  0.80481500  0.48031048    -0.66260
O1217       O  0.10031829  0.78859687  0.03014210    -0.53460
C1218       C  0.10632806  0.80554865  0.00216996     0.73710
Zr1219     Zr  0.03501140  0.78955541  0.45977095     2.77540
O1220       O  0.07577534  0.78568693  0.41396996    -0.97010
O1221       O  0.02299959  0.84767461  0.45247359    -0.77830
Zr1222     Zr  0.03934089  0.69533261  0.47485564     2.70070
O1223       O  0.07966539  0.71152653  0.43174523    -0.79080
O1224       O  0.02003894  0.64147142  0.49231582    -0.98160
Zr1225     Zr  0.05450056  0.75165920  0.04690927     2.21500
Zr1226     Zr  0.45816834  0.74101055  0.45359524     2.11130
O1227       O  0.01542563  0.74046337  0.44557793    -2.46850
O1228       O  0.05939029  0.74464961  0.49027715    -0.78870
O1229       O  0.47877558  0.79155235  0.47000468    -0.71060
O1230       O  0.03333857  0.70181864  0.03054754    -2.32020
O1231       O  0.02764117  0.79561563  0.01656266    -2.28230
O1232       O  0.48282803  0.69751523  0.48670288    -0.72820
H1233       H  0.42859070  0.74386404  0.02096566     0.79170
H1234       H  0.04340709  0.68333895  0.04244093     0.80260
H1235       H  0.02208870  0.73957374  0.42257629     0.82490
H1236       H  0.03732149  0.81513612  0.02207915     0.80090
H1237       H  0.51204275  0.64114398  0.05985291     0.43130
H1238       H  0.02970476  0.63577067  0.51357693     0.42100
H1239       H  0.09473542  0.72465530  0.44244879     0.41780
H1240       H  0.07064462  0.76614437  0.40316235     0.39710
H1241       H  0.99916973  0.84971469  0.45419516     0.42840
H1242       H  0.50697868  0.85276166  0.03536011     0.37630
H1243       H  0.45003709  0.76640814  0.09550248     0.43740
H1244       H  0.41649457  0.71116597  0.07851686     0.40160
H1245       H  0.07046860  0.80390976  0.39762919     0.45080
H1246       H  0.47097440  0.86187877  0.03507633     0.43800
H1247       H  0.43514290  0.68440100  0.10076726     0.43940
H1248       H  0.99648340  0.64125783  0.49754335     0.44290
C1249       C  0.18966259  0.63642696  0.01250509     0.03850
C1250       C  0.16039492  0.64910688  0.02923223    -0.12300
C1251       C  0.14338259  0.67752544  0.01424270     0.01350
C1252       C  0.15456046  0.68954299  0.98226483    -0.10830
C1253       C  0.17254781  0.66821591  0.96337482     0.03840
C1254       C  0.19777510  0.65185715  0.98054856    -0.10250
H1255       H  0.14991024  0.63592785  0.05133276     0.09430
H1256       H  0.14063586  0.70856055  0.96916959     0.06960
H1257       H  0.21731243  0.64094589  0.96576134     0.06810
C1258       C  0.18298597  0.86020824  0.98924284     0.03850
C1259       C  0.19159645  0.84935439  0.95770204    -0.12300
C1260       C  0.16556380  0.83811837  0.44293651     0.01350
C1261       C  0.14969290  0.81531826  0.95865588    -0.10830
C1262       C  0.13897403  0.82001442  0.99181159     0.03840
C1263       C  0.15523827  0.84480379  0.00713798    -0.10250
H1264       H  0.21195497  0.85572588  0.44625777     0.09430
H1265       H  0.13671629  0.79606178  0.44696227     0.06960
H1266       H  0.14550359  0.85323182  0.03030695     0.06810
C1267       C  0.32945636  0.62945725  0.00278102     0.03850
C1268       C  0.31278478  0.64722479  0.02712216    -0.12300
C1269       C  0.33077462  0.65964379  0.54710252     0.01350
C1270       C  0.35561981  0.68151467  0.03158995    -0.10830
C1271       C  0.37396339  0.66950783  0.00458811     0.03840
C1272       C  0.36123016  0.64140051  0.99072493    -0.10250
H1273       H  0.28781898  0.63709671  0.53850578     0.09430
H1274       H  0.36592505  0.69986777  0.04485765     0.06960
H1275       H  0.37600921  0.62846772  0.97288643     0.06810
C1276       C  0.36812843  0.81066629  0.48383242     0.03850
C1277       C  0.36177675  0.80545216  0.51857169    -0.12300
C1278       C  0.35109601  0.83279971  0.53468065     0.01350
C1279       C  0.32236991  0.84406793  0.52188351    -0.10830
C1280       C  0.32450791  0.85486885  0.48797708     0.03840
C1281       C  0.34958366  0.83802950  0.46791244    -0.10250
H1282       H  0.37542011  0.78683135  0.53262580     0.09430
H1283       H  0.30442191  0.85465272  0.53856198     0.06870
H1284       H  0.35614263  0.84734687  0.44279220     0.06810
C1285       C  0.40688270  0.85313670  0.52075332     0.24310
C1286       C  0.37606482  0.85929795  0.53451014    -0.23800
C1287       C  0.36655932  0.89219236  0.53197211     0.19220
C1288       C  0.38060078  0.91370219  0.50654817     0.24250
C1289       C  0.40954073  0.90495076  0.48938075    -0.23740
C1290       C  0.42045419  0.87281738  0.49412799     0.19160
F1291       F  0.44223494  0.85410439  0.99002376    -0.13700
F1292       F  0.41074945  0.82194624  0.04905959    -0.16060
F1293       F  0.36534061  0.94204549  0.49692161    -0.16060
F1294       F  0.34269215  0.90235081  0.55301031    -0.13700
C1295       C  0.36723253  0.58431262  0.55460909     0.24310
C1296       C  0.39744632  0.59874267  0.54539368    -0.23800
C1297       C  0.39698264  0.62598785  0.07272175     0.19220
C1298       C  0.37219044  0.64499228  0.08757915     0.24250
C1299       C  0.34656049  0.63607726  0.57252113    -0.23740
C1300       C  0.34243944  0.60251053  0.57100815     0.19160
F1301       F  0.31260625  0.59044639  0.57804739    -0.13700
F1302       F  0.36130830  0.55385761  0.54688779    -0.16060
F1303       F  0.37862480  0.67223070  0.10183453    -0.16060
F1304       F  0.42780034  0.63536317  0.07219735    -0.13700
C1305       C  0.15610761  0.90205139  0.92903819     0.24310
C1306       C  0.14469462  0.87016899  0.92904268    -0.23800
C1307       C  0.11128324  0.86521047  0.43738924     0.19220
C1308       C  0.09580081  0.88488257  0.46003261     0.24250
C1309       C  0.11017903  0.91550620  0.96686524    -0.23740
C1310       C  0.13929461  0.92447204  0.94880111     0.19160
F1311       F  0.15255100  0.95338474  0.95201323    -0.13700
F1312       F  0.18555363  0.90916870  0.91437169    -0.16060
F1313       F  0.06757077  0.87508233  0.47559025    -0.16060
F1314       F  0.09558302  0.84043530  0.42728613    -0.13700
C1315       C  0.13293156  0.60159763  0.97880163     0.24310
C1316       C  0.10080548  0.61210168  0.97745697    -0.23800
C1317       C  0.10643396  0.64345259  0.44300320     0.19220
C1318       C  0.13261737  0.66441957  0.43271253     0.24250
C1319       C  0.15237792  0.64709391  0.94431389    -0.23740
C1320       C  0.15540347  0.61470984  0.95460524     0.19160
F1321       F  0.18214920  0.59906739  0.94462015    -0.13700
F1322       F  0.14183364  0.57849870  0.00220876    -0.16060
F1323       F  0.13032909  0.68821916  0.40777687    -0.16060
F1324       F  0.07800276  0.64814634  0.42967021    -0.13700
C1325       C  0.38482479  0.56769726  0.38821779     0.24310
C1326       C  0.40582931  0.04270339  0.39252890    -0.23800
C1327       C  0.40286643  0.01289849  0.38101884     0.19220
C1328       C  0.37513710  0.00700234  0.36862279     0.24250
C1329       C  0.35511129  0.03297964  0.35482679    -0.23740
C1330       C  0.36178845  0.56415648  0.36535803     0.19160
F1331       F  0.34298821  0.59009250  0.35483248    -0.13700
F1332       F  0.38572583  0.59571351  0.40328955    -0.16060
F1333       F  0.36737967  0.97584290  0.37714643    -0.16060
F1334       F  0.42229979  0.98662661  0.39035676    -0.13700
C1335       C  0.43051335  0.67242618  0.37902563     0.24310
C1336       C  0.93459947  0.66441336  0.34672731    -0.23800
C1337       C  0.92852951  0.63160379  0.34522213     0.19220
C1338       C  0.94486495  0.60992721  0.36730087     0.24250
C1339       C  0.95534198  0.62112953  0.39655094    -0.23740
C1340       C  0.44283792  0.65022978  0.40395994     0.19160
F1341       F  0.44398364  0.65866137  0.43511863    -0.13700
F1342       F  0.42153449  0.70334222  0.38558881    -0.16060
F1343       F  0.95105779  0.57926498  0.35945058    -0.16060
F1344       F  0.91867124  0.62179501  0.31697973    -0.13700
C1345       C  0.13665987  0.06418049  0.40187812     0.24310
C1346       C  0.11340272  0.56086003  0.38355943    -0.23800
C1347       C  0.10476668  0.56998122  0.35096613     0.19220
C1348       C  0.12912282  0.57680525  0.32569245     0.24250
C1349       C  0.16161528  0.57014310  0.33282203    -0.23740
C1350       C  0.15915667  0.07476524  0.37638336     0.19160
F1351       F  0.18929821  0.08192514  0.38289299    -0.13700
F1352       F  0.14697388  0.05726140  0.43193914    -0.16060
F1353       F  0.12118230  0.58271989  0.29401328    -0.16060
F1354       F  0.07368790  0.57003418  0.34308426    -0.13700
C1355       C  0.06442072  0.87615174  0.36695279     0.24310
C1356       C  0.53867750  0.85847626  0.35914923    -0.23800
C1357       C  0.50986388  0.87025953  0.37642213     0.19220
C1358       C  0.50863619  0.89891214  0.39073910     0.24250
C1359       C  0.53630447  0.91529950  0.39330196    -0.23740
C1360       C  0.06247647  0.90377514  0.38534926     0.19160
F1361       F  0.08940672  0.92038007  0.38899562    -0.13700
F1362       F  0.09329057  0.86678975  0.35244459    -0.16060
F1363       F  0.47998643  0.90922521  0.40544812    -0.16060
F1364       F  0.48191797  0.85493739  0.38271851    -0.13700
C1365       C  0.09492564  0.93922587  0.13182079     0.24310
C1366       C  0.10162869  0.46634553  0.10917989    -0.23800
C1367       C  0.13388837  0.47369170  0.10243410     0.19220
C1368       C  0.15632226  0.44923749  0.11169015     0.24250
C1369       C  0.15192159  0.43760606  0.14472763    -0.23740
C1370       C  0.11951253  0.92726802  0.15288274     0.19160
F1371       F  0.11457491  0.90105882  0.17496569    -0.13700
F1372       F  0.06896881  0.92080878  0.12959584    -0.16060
F1373       F  0.15856764  0.42504248  0.09117928    -0.16060
F1374       F  0.14265283  0.50134910  0.08387485    -0.13700
C1375       C  0.96074906  0.89747258  0.14139960     0.24310
C1376       C  0.96784612  0.89028649  0.10876438    -0.23800
C1377       C  0.44732387  0.86591776  0.09872803     0.19220
C1378       C  0.43420719  0.84169122  0.12247291     0.24250
C1379       C  0.93910037  0.84540393  0.15612611    -0.23740
C1380       C  0.94005541  0.87777008  0.16294027     0.19160
F1381       F  0.93238208  0.88501959  0.19418675    -0.13700
F1382       F  0.97510227  0.92226484  0.15262306    -0.16060
F1383       F  0.41106616  0.82194474  0.11477935    -0.16060
F1384       F  0.43198821  0.87435227  0.07149046    -0.13700
C1385       C  0.40579766  0.44413755  0.15217262     0.24310
C1386       C  0.39935104  0.44923214  0.11887578    -0.23800
C1387       C  0.37369079  0.93249755  0.10910396     0.19220
C1388       C  0.35004114  0.92049756  0.13322552     0.24250
C1389       C  0.35132357  0.42935038  0.16647421    -0.23740
C1390       C  0.38320531  0.42841887  0.17529336     0.19160
F1391       F  0.38877425  0.42388219  0.20773610    -0.13700
F1392       F  0.43233347  0.45666617  0.16230032    -0.16060
F1393       F  0.32603058  0.90183047  0.12554852    -0.16060
F1394       F  0.37334141  0.92526181  0.07794792    -0.13700
C1395       C  0.43646983  0.63020130  0.15118777     0.24310
C1396       C  0.96523689  0.64611266  0.15078948    -0.23800
C1397       C  0.99219348  0.63167395  0.13309067     0.19220
C1398       C  0.99159048  0.60138067  0.12369884     0.24250
C1399       C  0.96236336  0.58815800  0.12034767    -0.23740
C1400       C  0.43472515  0.60172228  0.13442170     0.19160
F1401       F  0.40610734  0.58722742  0.13311425    -0.13700
F1402       F  0.40974629  0.64209471  0.16775244    -0.16060
F1403       F  0.01966038  0.58872330  0.10960748    -0.16060
F1404       F  0.02039491  0.64492851  0.12258000    -0.13700
O1405       O  0.48319213  0.58960432  0.54874475    -0.85770
O1406       O  0.49703573  0.91833085  0.54782413    -0.85940
O1407       O  0.45418769  0.02703383  0.55045441    -0.87610
O1408       O  0.04778194  0.48319025  0.58647386    -0.86360
O1409       O  0.09017627  0.49228349  0.54857809    -0.85950
O1410       O  0.41138893  0.00378690  0.54089617    -0.87320
O1411       O  0.49441471  0.95516183  0.58628657    -0.85800
O1412       O  0.48553237  0.54710082  0.58737822    -0.85390
Zr1413     Zr  0.50757583  0.50473769  0.55708443     2.84310
O1414       O  0.03718561  0.97217813  0.53851764    -1.07370
O1415       O  0.49956044  0.52135518  0.50196051    -1.08090
C1416       C  0.47700402  0.57595779  0.57780348     1.07340
C1417       C  0.48855485  0.92711699  0.57719015     1.07280
C1418       C  0.43199102  0.00843350  0.56084874     1.10260
C1419       C  0.07771216  0.48153080  0.57757068     1.08040
H1420       H  0.45898145  0.96038720  0.53701185     0.33600
O1421       O  0.47417907  0.97570346  0.52633453    -1.28320
H1422       H  0.04635907  0.55027970  0.54608376     0.33270
O1423       O  0.03580840  0.53943411  0.52993490    -1.30000
O1424       O  0.02771583  0.92384029  0.95315054    -0.85770
O1425       O  0.97349297  0.60186878  0.95928129    -0.87260
O1426       O  0.41920043  0.95231415  0.99462859    -0.85840
O1427       O  0.09869452  0.96621338  0.48706964    -0.85890
O1428       O  0.09522598  0.56694713  0.49760627    -0.85610
O1429       O  0.40803116  0.54841001  0.03528061    -0.85410
O1430       O  0.45103137  0.02579994  0.92169186    -0.85780
O1431       O  0.05009468  0.53731488  0.91341771    -0.85240
O1432       O  0.41166093  0.02179096  0.96343079    -0.86310
O1433       O  0.08843936  0.53503023  0.95098710    -0.85470
O1434       O  0.46366570  0.92160578  0.48559475    -0.85860
O1435       O  0.44006600  0.59318911  0.02801268    -0.85590
O1436       O  0.04565879  0.59965057  0.99555212    -0.85240
O1437       O  0.06654210  0.92431846  0.50652729    -0.85640
O1438       O  0.01721955  0.96749926  0.91641578    -0.85940
O1439       O  0.98403181  0.56883054  0.91726935    -0.87280
Zr1440     Zr  0.01002909  0.94245984  0.50429243     2.83100
Zr1441     Zr  0.49385653  0.57267171  0.01040396     2.83500
Zr1442     Zr  0.43720172  0.00175410  0.01184765     2.84090
Zr1443     Zr  0.07314811  0.51426741  0.49355089     2.83360
Zr1444     Zr  0.00252992  0.01783499  0.94282770     2.84220
O1445       O  0.03047824  0.54751498  0.97579661    -1.07850
O1446       O  0.47349844  0.97592540  0.97412115    -1.07350
C1447       C  0.02735124  0.93784299  0.92408044     1.07310
C1448       C  0.97140355  0.59481993  0.92903403     1.09930
C1449       C  0.43064843  0.92304529  0.99355583     1.07480
C1450       C  0.09132580  0.93587613  0.48895199     1.07840
C1451       C  0.08619787  0.59294682  0.48043727     1.07420
C1452       C  0.41381391  0.57856335  0.03896198     1.06980
C1453       C  0.42186981  0.02878656  0.93346880     1.07400
C1454       C  0.07860462  0.54246656  0.92155150     1.06910
H1455       H  0.44994501  0.55472866  0.97283634     0.33590
O1456       O  0.46638563  0.54016073  0.98103373    -1.28950
H1457       H  0.05365448  0.97702679  0.95619080     0.33620
O1458       O  0.03767107  0.98449850  0.97223415    -1.30330
C1459       C  0.01231120  0.64834849  0.70189321     0.03850
C1460       C  0.97886414  0.65495911  0.70346371    -0.12300
C1461       C  0.96691680  0.66555116  0.67353633     0.01350
C1462       C  0.97967636  0.69529201  0.66208019    -0.10830
C1463       C  0.01337182  0.69508038  0.65583918     0.03840
C1464       C  0.03102695  0.67180531  0.67891056    -0.10250
H1465       H  0.96306983  0.63992973  0.72036185     0.09430
H1466       H  0.96454290  0.71156475  0.64699832     0.06960
H1467       H  0.05644689  0.66660335  0.67330922     0.06810
O1468       O  0.49479113  0.59295780  0.70771553    -0.74580
O1469       O  0.04280988  0.59940262  0.72734657    -0.53480
C1470       C  0.01848251  0.61123816  0.71148286     0.79150
O1471       O  0.40845334  0.49739231  0.80802342    -0.59180
O1472       O  0.40011993  0.95391427  0.78044132    -0.52210
C1473       C  0.39048495  0.97598786  0.79980328     0.71170
O1474       O  0.48338679  0.57518591  0.81897917    -0.73740
O1475       O  0.03385691  0.58802974  0.79602682    -0.54300
C1476       C  0.00861201  0.59483304  0.81557035     0.77170
O1477       O  0.41555719  0.51401751  0.70019651    -0.58880
O1478       O  0.40176009  0.96232063  0.71828968    -0.52000
C1479       C  0.39413001  0.99098365  0.70436443     0.73760
Zr1480     Zr  0.47021843  0.53768073  0.70789036     2.54710
O1481       O  0.42821617  0.57968779  0.70038346    -0.79440
O1482       O  0.49345481  0.54666722  0.65224884    -0.92860
Zr1483     Zr  0.46270988  0.52271918  0.80319796     2.64680
O1484       O  0.42238008  0.56627374  0.79968595    -0.97820
O1485       O  0.46101313  0.50929509  0.86178458    -0.79880
O1486       O  0.48929576  0.55195338  0.75741254    -0.83240
O1487       O  0.44513746  0.50796911  0.75357447    -2.17940
O1488       O  0.03027931  0.91150273  0.68943459    -0.66630
O1489       O  0.47278292  0.90683958  0.71174183    -0.51190
C1490       C  0.49684171  0.89734876  0.69189783     0.72140
O1491       O  0.08282689  0.97339921  0.81867662    -0.59530
O1492       O  0.08903853  0.52229804  0.79387603    -0.51510
C1493       C  0.09913855  0.49691658  0.81231609     0.73950
O1494       O  0.99836693  0.90905426  0.81468685    -0.70930
O1495       O  0.45965056  0.89586564  0.78044027    -0.49600
C1496       C  0.47996985  0.88629324  0.80216583     0.75330
O1497       O  0.08527325  0.99913224  0.68049249    -0.66260
O1498       O  0.09566153  0.53335075  0.71901264    -0.53460
C1499       C  0.10189964  0.51592143  0.69383826     0.73710
Zr1500     Zr  0.03912606  0.96809165  0.70423519     2.77540
O1501       O  0.08177402  0.92968372  0.72159952    -0.97010
O1502       O  0.02712018  0.95970136  0.64933981    -0.77830
Zr1503     Zr  0.02956992  0.95938120  0.79972922     2.70070
O1504       O  0.06793197  0.91353766  0.80470333    -0.79080
O1505       O  0.01445836  0.97492193  0.85306405    -0.98160
Zr1506     Zr  0.04598915  0.54343346  0.75723616     2.21500
Zr1507     Zr  0.45293068  0.95002154  0.74908336     2.11130
O1508       O  0.01203714  0.94243703  0.75086590    -2.46850
O1509       O  0.05644757  0.98676318  0.75304439    -0.78870
O1510       O  0.47874827  0.98096192  0.70205974    -0.71060
O1511       O  0.02011793  0.51354408  0.80427380    -2.32020
O1512       O  0.02391089  0.52745425  0.70858422    -2.28230
O1513       O  0.47374548  0.96464165  0.79986011    -0.72820
H1514       H  0.42276257  0.51476146  0.75408831     0.79170
H1515       H  0.02882160  0.52087228  0.82356470     0.80260
H1516       H  0.01747802  0.91942719  0.75183579     0.82490
H1517       H  0.03391976  0.53985922  0.68959124     0.80090
H1518       H  0.48032385  0.52002075  0.86809704     0.43130
H1519       H  0.99988836  0.95743356  0.86216075     0.42100
H1520       H  0.08908965  0.92091628  0.79471238     0.41780
H1521       H  0.09017338  0.93847220  0.74090932     0.39710
H1522       H  0.00457421  0.96658431  0.64677103     0.42840
H1523       H  0.50873880  0.52825763  0.64915548     0.37630
H1524       H  0.42722527  0.59120749  0.72073451     0.43740
H1525       H  0.41394447  0.56601468  0.77767850     0.40160
H1526       H  0.07123926  0.90940506  0.73097675     0.45080
H1527       H  0.50830770  0.56427795  0.65455869     0.43800
H1528       H  0.40454214  0.55878632  0.81543472     0.43940
H1529       H  0.03558932  0.97115541  0.86249045     0.44290
C1530       C  0.36052577  0.50271207  0.68655626     0.03850
C1531       C  0.36356278  0.53486851  0.67300258    -0.12300
C1532       C  0.36569016  0.53664783  0.63911441     0.01350
C1533       C  0.33595343  0.53338377  0.62820861    -0.10830
C1534       C  0.31862217  0.50578150  0.64095126     0.03840
C1535       C  0.33381166  0.48717372  0.67050129    -0.10250
H1536       H  0.37666055  0.55263056  0.68433650     0.09430
H1537       H  0.33365792  0.54327843  0.60327909     0.06960
H1538       H  0.32869037  0.46169170  0.67679774     0.06810
C1539       C  0.00492972  0.85868574  0.68206138     0.03850
C1540       C  0.98013229  0.83802022  0.69600019    -0.12300
C1541       C  0.96224200  0.82321981  0.67343756     0.01350
C1542       C  0.98174124  0.80465288  0.65264957    -0.10830
C1543       C  0.00883052  0.81960461  0.63578393     0.03840
C1544       C  0.02002901  0.84865319  0.65026547    -0.10250
H1545       H  0.96751068  0.84383421  0.71899805     0.09430
H1546       H  0.97038239  0.78532333  0.64174537     0.06960
H1547       H  0.03756277  0.86405146  0.63625463     0.06810
C1548       C  0.13590270  0.50605257  0.68223192     0.03850
C1549       C  0.14170046  0.47230039  0.68996931    -0.12300
C1550       C  0.16123956  0.45485475  0.66825620     0.01350
C1551       C  0.18884206  0.47140946  0.65560355    -0.10830
C1552       C  0.18414019  0.50389007  0.64202349     0.03840
C1553       C  0.15624017  0.52169325  0.65549097    -0.10250
H1554       H  0.12476955  0.45871707  0.70649952     0.09430
H1555       H  0.20828211  0.45671622  0.64474307     0.06960
H1556       H  0.14911972  0.54526916  0.64388503     0.06810
C1557       C  0.48890403  0.85035683  0.80962550     0.03850
C1558       C  0.52273436  0.84649739  0.80642856    -0.12300
C1559       C  0.53672101  0.83433185  0.83485992     0.01350
C1560       C  0.52513244  0.80349546  0.84427901    -0.10830
C1561       C  0.49162626  0.80194649  0.85174906     0.03840
C1562       C  0.47215380  0.82589737  0.83221373    -0.10250
H1563       H  0.53657312  0.86372523  0.78997559     0.09430
H1564       H  0.54115084  0.78610483  0.85682829     0.06960
H1565       H  0.44693003  0.83000120  0.83973075     0.06810
C1566       C  0.13275216  0.49971539  0.82549508     0.03850
C1567       C  0.15121442  0.52475020  0.80843483    -0.12300
C1568       C  0.16821843  0.54347556  0.82749790     0.01350
C1569       C  0.18847856  0.52428607  0.84823046    -0.10830
C1570       C  0.17621759  0.49589391  0.86631690     0.03840
C1571       C  0.14582085  0.48464060  0.85582536    -0.10250
H1572       H  0.14374069  0.53659637  0.78534450     0.09430
H1573       H  0.20865464  0.53593273  0.85726023     0.06960
H1574       H  0.13232067  0.46643211  0.87128946     0.06810
C1575       C  0.00305977  0.62913286  0.82832740     0.03850
C1576       C  0.97619412  0.64675866  0.81552485    -0.12300
C1577       C  0.95996953  0.67067105  0.83400716     0.01350
C1578       C  0.98075763  0.69019246  0.84812756    -0.10830
C1579       C  0.00376057  0.67363076  0.86753875     0.03840
C1580       C  0.01591860  0.64209321  0.85685017    -0.10250
H1581       H  0.96298010  0.63585829  0.79754904     0.09430
H1582       H  0.97117614  0.71382965  0.85454362     0.06960
H1583       H  0.03286836  0.62746143  0.87123446     0.06810
C1584       C  0.35458198  0.98508651  0.80547245     0.03850
C1585       C  0.35046394  0.01929267  0.80216155    -0.12300
C1586       C  0.33662349  0.03321122  0.82967623     0.01350
C1587       C  0.30677999  0.02052747  0.83920834    -0.10830
C1588       C  0.30761253  0.98669868  0.84775329     0.03840
C1589       C  0.33018736  0.96757915  0.82734341    -0.10250
H1590       H  0.36790920  0.03372511  0.78675063     0.09430
H1591       H  0.29024129  0.03594371  0.85324613     0.06960
H1592       H  0.33450179  0.94196055  0.83481259     0.06810
O1593       O  0.20005261  0.98685670  0.59062226    -0.74580
O1594       O  0.21686406  0.53489846  0.59719319    -0.53480
C1595       C  0.20029223  0.50961180  0.60745580     0.79150
O1596       O  0.30946260  0.90713585  0.50587125    -0.59180
O1597       O  0.28847013  0.89939711  0.95037192    -0.52210
C1598       C  0.30783192  0.89120259  0.97334305     0.71170
O1599       O  0.30482744  0.97003140  0.59756318    -0.73740
O1600       O  0.28229421  0.52250117  0.59752663    -0.54300
C1601       C  0.29795937  0.49754821  0.61179247     0.77170
O1602       O  0.18875223  0.90428875  0.52470402    -0.58880
O1603       O  0.21684685  0.90450598  0.97090820    -0.52000
C1604       C  0.19827470  0.89202521  0.99538088     0.73760
Zr1605     Zr  0.20614462  0.95790967  0.53991905     2.54710
O1606       O  0.21683671  0.91324301  0.58157411    -0.79440
O1607       O  0.14945471  0.95934941  0.52880278    -0.92860
Zr1608     Zr  0.29802132  0.95488118  0.53919419     2.64680
O1609       O  0.28464891  0.91159280  0.58272104    -0.97820
O1610       O  0.35342721  0.96340624  0.55049085    -0.79880
O1611       O  0.25120423  0.98058578  0.56011053    -0.83240
O1612       O  0.25294171  0.93442388  0.51544018    -2.17940
O1613       O  0.18510666  0.51230177  0.91913549    -0.66630
O1614       O  0.21214529  0.96602666  0.90589461    -0.51190
C1615       C  0.19105952  0.99008098  0.89981241     0.72140
O1616       O  0.32079192  0.58091826  0.97227447    -0.59530
O1617       O  0.29073064  0.58285054  0.52318611    -0.51510
C1618       C  0.31270992  0.59281581  0.50001411     0.73950
O1619       O  0.30597041  0.50331926  0.90265796    -0.70930
O1620       O  0.28122583  0.95566617  0.89591550    -0.49600
C1621       C  0.29854286  0.98002702  0.88457461     0.75330
O1622       O  0.20005193  0.58242966  0.99616099    -0.66260
O1623       O  0.21905573  0.58803528  0.54410971    -0.53460
C1624       C  0.20273613  0.59832901  0.51944718     0.73710
Zr1625     Zr  0.20667253  0.53080655  0.96860581     2.77540
O1626       O  0.22566385  0.56945197  0.92223004    -0.97010
O1627       O  0.14928693  0.52443335  0.98223650    -0.77830
Zr1628     Zr  0.29864639  0.52904279  0.95605618     2.70070
O1629       O  0.30409974  0.57115455  0.91044235    -0.79080
O1630       O  0.35006082  0.50815434  0.96872082    -0.98160
Zr1631     Zr  0.25323862  0.53762464  0.54616625     2.21500
Zr1632     Zr  0.25208088  0.94962462  0.95055763     2.11130
O1633       O  0.25130929  0.50684945  0.94067442    -2.46850
O1634       O  0.25360971  0.55248535  0.98539974    -0.78870
O1635       O  0.20718615  0.97361824  0.97996590    -0.71060
O1636       O  0.30078048  0.51210572  0.52186097    -2.32020
O1637       O  0.20604413  0.51520661  0.52615975    -2.28230
O1638       O  0.30062945  0.97177511  0.96872877    -0.72820
H1639       H  0.25224764  0.91117946  0.52127049     0.79170
H1640       H  0.31936337  0.52124451  0.52988833     0.80260
H1641       H  0.24956856  0.51102739  0.91733894     0.82490
H1642       H  0.18661821  0.52520011  0.53575082     0.80090
H1643       H  0.35912708  0.98355848  0.53672136     0.43130
H1644       H  0.35786940  0.49740301  0.94889108     0.42100
H1645       H  0.29612447  0.59198892  0.91890202     0.41780
H1646       H  0.24226283  0.58256172  0.93056643     0.39710
H1647       H  0.14315188  0.50690573  0.96914146     0.42840
H1648       H  0.14168527  0.98192745  0.53135055     0.37630
H1649       H  0.22355735  0.92394229  0.60065609     0.43740
H1650       H  0.28333042  0.89122599  0.57184784     0.40160
H1651       H  0.23644601  0.55899164  0.90336736     0.45080
H1652       H  0.13714166  0.94526985  0.54570914     0.43800
H1653       H  0.30305173  0.90809404  0.59684634     0.43940
H1654       H  0.35909842  0.53007268  0.96711256     0.44290
O1655       O  0.48444610  0.81406243  0.57971459    -0.74580
O1656       O  0.03990374  0.78890535  0.59300445    -0.53480
C1657       C  0.01487144  0.80772211  0.60067347     0.79150
O1658       O  0.42163671  0.68475305  0.52150804    -0.59180
O1659       O  0.41458392  0.70316224  0.97208230    -0.52210
C1660       C  0.40764261  0.68405735  0.99859254     0.71170
O1661       O  0.49649267  0.69696865  0.59959459    -0.73740
O1662       O  0.04584936  0.72101823  0.60607924    -0.54300
C1663       C  0.02089023  0.70486179  0.61826984     0.77170
O1664       O  0.42267089  0.79828350  0.49407559    -0.58880
O1665       O  0.40978057  0.77661112  0.95321587    -0.52000
C1666       C  0.40192548  0.79623444  0.97560183     0.73760
Zr1667     Zr  0.46990681  0.79549622  0.52765119     2.54710
O1668       O  0.42790940  0.78178515  0.57178747    -0.79440
O1669       O  0.48325515  0.85328592  0.52029392    -0.92860
Zr1670     Zr  0.47291560  0.70291760  0.54425713     2.64680
O1671       O  0.43418076  0.70989244  0.59035736    -0.97820
O1672       O  0.49049474  0.64766553  0.55254023    -0.79880
O1673       O  0.49396030  0.75170874  0.55799174    -0.83240
O1674       O  0.44903392  0.74651177  0.51254412    -2.17940
O1675       O  0.00759212  0.79985939  0.90698736    -0.66630
O1676       O  0.46303981  0.77057469  0.89953141    -0.51190
C1677       C  0.48569390  0.78998471  0.88821840     0.72140
O1678       O  0.08911671  0.67781165  0.00201437    -0.59530
O1679       O  0.09975608  0.70950809  0.54110996    -0.51510
C1680       C  0.10727914  0.68584135  0.52235196     0.73950
O1681       O  0.03224710  0.68314317  0.91676346    -0.70930
O1682       O  0.48142159  0.70432153  0.91168196    -0.49600
C1683       C  0.50624033  0.68677748  0.90064599     0.75330
O1684       O  0.08658284  0.80830767  0.97897499    -0.66260
O1685       O  0.09882959  0.78583524  0.53195151    -0.53460
C1686       C  0.10517249  0.80248545  0.50385429     0.73710
Zr1687     Zr  0.03527044  0.79366950  0.95876805     2.77540
O1688       O  0.07553237  0.78934430  0.91257818    -0.97010
O1689       O  0.02268274  0.85163828  0.95182613    -0.77830
Zr1690     Zr  0.04246583  0.69977907  0.97221109     2.70070
O1691       O  0.08576587  0.71583666  0.93184852    -0.79080
O1692       O  0.01751450  0.64771894  0.97364437    -0.98160
Zr1693     Zr  0.05277970  0.74914423  0.54883660     2.21500
Zr1694     Zr  0.45980478  0.74119148  0.95532628     2.11130
O1695       O  0.01671603  0.74445244  0.94407136    -2.46850
O1696       O  0.06112946  0.74919900  0.98814672    -0.78870
O1697       O  0.47949387  0.79140195  0.97237299    -0.71060
O1698       O  0.03085625  0.70022110  0.53240400    -2.32020
O1699       O  0.02702105  0.79308182  0.51726733    -2.28230
O1700       O  0.48623727  0.69766829  0.98615304    -0.72820
H1701       H  0.42624648  0.74548778  0.51902720     0.79170
H1702       H  0.04132842  0.68202803  0.54427780     0.80260
H1703       H  0.02259552  0.74362348  0.92089705     0.82490
H1704       H  0.03686819  0.81263997  0.52243743     0.80090
H1705       H  0.51110941  0.64798896  0.56290080     0.43130
H1706       H  0.00555962  0.64390373  0.99536869     0.42100
H1707       H  0.09836311  0.73177246  0.94194455     0.41780
H1708       H  0.07062234  0.76937828  0.90235401     0.39710
H1709       H  0.99884288  0.85335958  0.95379168     0.42840
H1710       H  0.49747459  0.85603695  0.49992566     0.37630
H1711       H  0.43943373  0.77064205  0.59013193     0.43740
H1712       H  0.41346359  0.71485899  0.58027376     0.40160
H1713       H  0.06988472  0.80714989  0.89593476     0.45080
H1714       H  0.49778926  0.85701964  0.53762819     0.43800
H1715       H  0.43276537  0.68797419  0.60229733     0.43940
H1716       H  0.00067678  0.65068417  0.95783296     0.44290
C1717       C  0.18808539  0.63317077  0.51574412     0.03850
C1718       C  0.15693426  0.64393219  0.53005628    -0.12300
C1719       C  0.14206640  0.67449401  0.51719789     0.01350
C1720       C  0.15691748  0.69031856  0.48833585    -0.10830
C1721       C  0.17864513  0.67208592  0.46932293     0.03840
C1722       C  0.20084907  0.65296885  0.48811678    -0.10250
H1723       H  0.14390593  0.62826468  0.54879101     0.09430
H1724       H  0.14412800  0.71062448  0.47567470     0.06960
H1725       H  0.22296051  0.64457144  0.47536399     0.06810
C1726       C  0.18140989  0.85772019  0.49196642     0.03850
C1727       C  0.19072136  0.84670554  0.46064635    -0.12300
C1728       C  0.16598897  0.84093736  0.94052968     0.01350
C1729       C  0.14893976  0.81259232  0.46082701    -0.10830
C1730       C  0.13772770  0.81726909  0.49386231     0.03840
C1731       C  0.15349814  0.84222886  0.50941042    -0.10250
H1732       H  0.21260202  0.85839096  0.94292105     0.09430
H1733       H  0.13713932  0.79885373  0.94500965     0.06960
H1734       H  0.14335282  0.85063162  0.53244405     0.06810
C1735       C  0.32699564  0.62704773  0.50249034     0.03850
C1736       C  0.31094194  0.64485646  0.52713002    -0.12300
C1737       C  0.33141840  0.66207554  0.04823586     0.01350
C1738       C  0.35192228  0.68135624  0.52865811    -0.10830
C1739       C  0.37066322  0.66962899  0.50168364     0.03840
C1740       C  0.35827933  0.64031531  0.48890162    -0.10250
H1741       H  0.28899886  0.63996172  0.03706883     0.09430
H1742       H  0.36122423  0.70086026  0.54114586     0.06960
H1743       H  0.37313713  0.62730210  0.47118991     0.06810
C1744       C  0.36752054  0.81158566  0.98144889     0.03850
C1745       C  0.35491530  0.80389194  0.01423139    -0.12300
C1746       C  0.34094428  0.83007411  0.03036529     0.01350
C1747       C  0.31527156  0.84392546  0.01312657    -0.10830
C1748       C  0.32308693  0.85640845  0.98019336     0.03840
C1749       C  0.35166901  0.84028714  0.96402852    -0.10250
H1750       H  0.36660522  0.78456568  0.02933661     0.09430
H1751       H  0.29585021  0.85560009  0.02743170     0.06870
H1752       H  0.36246707  0.85099412  0.94084286     0.06810
C1753       C  0.39775502  0.84749783  0.03163703     0.24310
C1754       C  0.36521100  0.85483999  0.03822681    -0.23800
C1755       C  0.35733310  0.88787968  0.03281405     0.19220
C1756       C  0.37525609  0.90749025  0.00851850     0.24250
C1757       C  0.40626483  0.89778616  0.99800484    -0.23740
C1758       C  0.41609698  0.86625267  0.00695917     0.19160
F1759       F  0.44588851  0.86186208  0.47507052    -0.13700
F1760       F  0.42555052  0.83172693  0.53745592    -0.16060
F1761       F  0.36258480  0.93501378  0.99315449    -0.16060
F1762       F  0.33109978  0.89983945  0.04940936    -0.13700
C1763       C  0.35758950  0.58614460  0.06613441     0.24310
C1764       C  0.38919142  0.59731197  0.05865314    -0.23800
C1765       C  0.40311799  0.62732578  0.56052991     0.19220
C1766       C  0.37787489  0.64294806  0.57852477     0.24250
C1767       C  0.34091893  0.64066966  0.07862680    -0.23740
C1768       C  0.33376285  0.60729516  0.07960502     0.19160
F1769       F  0.30279165  0.59780581  0.08500848    -0.13700
F1770       F  0.34943574  0.55648233  0.05823548    -0.16060
F1771       F  0.38260032  0.66940499  0.59450765    -0.16060
F1772       F  0.43295426  0.63850731  0.56037689    -0.13700
C1773       C  0.15628600  0.89910777  0.43034286     0.24310
C1774       C  0.14459535  0.86729190  0.43069131    -0.23800
C1775       C  0.11149319  0.86774735  0.93610409     0.19220
C1776       C  0.09617331  0.88677886  0.95939937     0.24250
C1777       C  0.11008026  0.91353395  0.46737707    -0.23740
C1778       C  0.13953318  0.92188745  0.44965844     0.19160
F1779       F  0.15333671  0.95045631  0.45297323    -0.13700
F1780       F  0.18606656  0.90577397  0.41621782    -0.16060
F1781       F  0.06839071  0.87631871  0.97541742    -0.16060
F1782       F  0.09587297  0.84315699  0.92561212    -0.13700
C1783       C  0.14382296  0.60353330  0.46273522     0.24310
C1784       C  0.11191980  0.61478270  0.46362582    -0.23800
C1785       C  0.09466452  0.63584583  0.95102563     0.19220
C1786       C  0.12058343  0.65512278  0.93585263     0.24250
C1787       C  0.16362978  0.65539818  0.44250584    -0.23740
C1788       C  0.16818568  0.62196766  0.44512055     0.19160
F1789       F  0.19831214  0.61021798  0.43990708    -0.13700
F1790       F  0.15043177  0.57379740  0.47660240    -0.16060
F1791       F  0.11708303  0.67200865  0.90621602    -0.16060
F1792       F  0.06677622  0.63559701  0.93626901    -0.13700
C1793       C  0.38094060  0.56072986  0.90028306     0.24310
C1794       C  0.39866928  0.03291509  0.90952854    -0.23800
C1795       C  0.39536147  0.00486423  0.89494393     0.19220
C1796       C  0.37415477  0.00405642  0.87180914     0.24250
C1797       C  0.35833228  0.03320520  0.85781049    -0.23740
C1798       C  0.36275893  0.56184217  0.87239070     0.19160
F1799       F  0.34840177  0.59042556  0.86114269    -0.13700
F1800       F  0.38233415  0.58744982  0.91731635    -0.16060
F1801       F  0.36990045  0.97294548  0.86644762    -0.16060
F1802       F  0.41111784  0.97649729  0.90548716    -0.13700
C1803       C  0.42765065  0.66874430  0.88845831     0.24310
C1804       C  0.93051085  0.66001185  0.85638203    -0.23800
C1805       C  0.92365651  0.62724290  0.85589078     0.19220
C1806       C  0.93963802  0.60510336  0.87790758     0.24250
C1807       C  0.95119180  0.61634498  0.90663568    -0.23740
C1808       C  0.44017084  0.64710648  0.91360715     0.19160
F1809       F  0.44390539  0.65732760  0.94352994    -0.13700
F1810       F  0.42028728  0.70030014  0.89391775    -0.16060
F1811       F  0.94344504  0.57357799  0.87127084    -0.16060
F1812       F  0.91060216  0.61764420  0.82919464    -0.13700
C1813       C  0.13298153  0.06669210  0.90051212     0.24310
C1814       C  0.10115339  0.55809772  0.89477520    -0.23800
C1815       C  0.09167759  0.56652249  0.86241444     0.19220
C1816       C  0.11521355  0.57478345  0.83670715     0.24250
C1817       C  0.14819740  0.57068628  0.84292669    -0.23740
C1818       C  0.15501888  0.07801253  0.87488006     0.19160
F1819       F  0.18494762  0.08618378  0.88112359    -0.13700
F1820       F  0.14346168  0.05936986  0.93039099    -0.16060
F1821       F  0.10639040  0.58142516  0.80542026    -0.16060
F1822       F  0.06055339  0.56471918  0.85519566    -0.13700
C1823       C  0.06379479  0.87758369  0.86594339     0.24310
C1824       C  0.53575043  0.85874410  0.86107179    -0.23800
C1825       C  0.50642950  0.86895077  0.87877559     0.19220
C1826       C  0.50456480  0.89593824  0.89588847     0.24250
C1827       C  0.53161316  0.91291562  0.89941002    -0.23740
C1828       C  0.06204148  0.90498460  0.88464776     0.19160
F1829       F  0.08905552  0.92140811  0.88839374    -0.13700
F1830       F  0.09262828  0.86810014  0.85144538    -0.16060
F1831       F  0.47564424  0.90459641  0.91123550    -0.16060
F1832       F  0.47803668  0.85426806  0.88183852    -0.13700
C1833       C  0.09324625  0.93852416  0.63338525     0.24310
C1834       C  0.09910240  0.46484256  0.60181049    -0.23800
C1835       C  0.13188995  0.46953712  0.59679498     0.19220
C1836       C  0.15236755  0.44536339  0.61081111     0.24250
C1837       C  0.14454695  0.43635246  0.64403496    -0.23740
C1838       C  0.11759319  0.92631970  0.65461779     0.19160
F1839       F  0.11246058  0.89975244  0.67619647    -0.13700
F1840       F  0.06733285  0.92020062  0.63074884    -0.16060
F1841       F  0.15813547  0.41970113  0.59247117    -0.16060
F1842       F  0.14302102  0.49411750  0.57516557    -0.13700
C1843       C  0.95949623  0.89766219  0.64110380     0.24310
C1844       C  0.96674792  0.89051596  0.60849912    -0.23800
C1845       C  0.44803464  0.88270109  0.58799161     0.19220
C1846       C  0.42915677  0.86124564  0.60964295     0.24250
C1847       C  0.93773453  0.84555931  0.65565713    -0.23740
C1848       C  0.93873782  0.87790525  0.66252601     0.19160
F1849       F  0.93091179  0.88505516  0.69376179    -0.13700
F1850       F  0.97378981  0.92248834  0.65238043    -0.16060
F1851       F  0.41261776  0.83725450  0.59856106    -0.16060
F1852       F  0.44477111  0.88453884  0.55556491    -0.13700
C1853       C  0.44611378  0.49788479  0.61635016     0.24310
C1854       C  0.43657080  0.48074714  0.59136987    -0.23800
C1855       C  0.41009683  0.96776734  0.59802741     0.19220
C1856       C  0.38481705  0.98320378  0.61442076     0.24250
C1857       C  0.39070467  0.51337876  0.62518931    -0.23740
C1858       C  0.42320340  0.51890789  0.62963612     0.19160
F1859       F  0.43234799  0.54238010  0.64758446    -0.13700
F1860       F  0.47686553  0.49692661  0.62401843    -0.16060
F1861       F  0.35885401  0.96462556  0.61876394    -0.16060
F1862       F  0.40517658  0.94138800  0.58146921    -0.13700
C1863       C  0.43885493  0.62733841  0.64377128     0.24310
C1864       C  0.96946941  0.63952955  0.64925544    -0.23800
C1865       C  0.99978718  0.62661590  0.63550790     0.19220
C1866       C  0.00174821  0.59941910  0.61928347     0.24250
C1867       C  0.97433353  0.58738974  0.60962382    -0.23740
C1868       C  0.44018834  0.60443911  0.62014983     0.19160
F1869       F  0.41288550  0.58972740  0.61422404    -0.13700
F1870       F  0.40992884  0.63673796  0.65811426    -0.16060
F1871       F  0.03137296  0.58804192  0.60777114    -0.16060
F1872       F  0.02882745  0.64000038  0.63253889    -0.13700
O1873       O  0.97615191  0.08441020  0.06556415    -0.85770
O1874       O  0.99473527  0.40620457  0.05609148    -0.85940
O1875       O  0.94877986  0.47493335  0.10347206    -0.87610
O1876       O  0.55009434  0.99028351  0.09874938    -0.86360
O1877       O  0.58864177  0.98983402  0.05614651    -0.85950
O1878       O  0.91084387  0.47763607  0.06550922    -0.87320
O1879       O  0.99059930  0.44038695  0.09689378    -0.85800
O1880       O  0.96522493  0.03811223  0.09838435    -0.85390
Zr1881     Zr  0.99836969  0.99643115  0.07322932     2.84310
O1882       O  0.53694894  0.47160423  0.03876126    -1.07370
O1883       O  0.96713031  0.03158589  0.04154047    -1.08090
C1884       C  0.96510886  0.06896047  0.09255391     1.07340
C1885       C  0.98630016  0.41265073  0.08604986     1.07280
C1886       C  0.92060379  0.46881716  0.09450632     1.10260
C1887       C  0.57863047  0.98322957  0.08664409     1.08040
H1888       H  0.95812187  0.45018051  0.04851793     0.33600
O1889       O  0.97197342  0.46705498  0.03895303    -1.28320
H1890       H  0.54004951  0.05065800  0.05756231     0.33270
O1891       O  0.52903109  0.03832403  0.04293526    -1.30000
O1892       O  0.53458445  0.42554321  0.44662739    -0.85770
O1893       O  0.48473277  0.11057678  0.44186697    -0.87260
O1894       O  0.92478935  0.45964018  0.46438051    -0.85840
O1895       O  0.59805132  0.46657453  0.98708333    -0.85890
O1896       O  0.58676016  0.06469148  0.01138673    -0.85610
O1897       O  0.90854561  0.04906667  0.53352315    -0.85410
O1898       O  0.95697466  0.53621173  0.40946836    -0.85780
O1899       O  0.55954292  0.04120050  0.39859331    -0.85240
O1900       O  0.91535053  0.53870753  0.44819846    -0.86310
O1901       O  0.59781888  0.03823676  0.43650053    -0.85470
O1902       O  0.96066607  0.41403987  0.99575226    -0.85860
O1903       O  0.94096811  0.09355534  0.52724543    -0.85590
O1904       O  0.55787381  0.10360632  0.47016280    -0.85240
O1905       O  0.56641664  0.42404995  0.00606712    -0.85640
O1906       O  0.52508094  0.46861605  0.40891955    -0.85940
O1907       O  0.49081707  0.07525807  0.40142368    -0.87280
Zr1908     Zr  0.50959971  0.44167621  0.00491633     2.83100
Zr1909     Zr  0.99536501  0.07363449  0.50877726     2.83500
Zr1910     Zr  0.94155606  0.50730649  0.48964338     2.84090
Zr1911     Zr  0.56588080  0.01256391  0.00545373     2.83360
Zr1912     Zr  0.51163949  0.52269375  0.42973332     2.84220
O1913       O  0.54126195  0.05344182  0.45894503    -1.07850
O1914       O  0.97983524  0.48149549  0.45403001    -1.07350
C1915       C  0.53458094  0.43874950  0.41735232     1.07310
C1916       C  0.47914550  0.10183749  0.41296737     1.09930
C1917       C  0.93788712  0.43235201  0.45600976     1.07480
C1918       C  0.59112825  0.43614771  0.98872742     1.07840
C1919       C  0.57691711  0.09118690  0.99586680     1.07420
C1920       C  0.91439938  0.07904688  0.53767960     1.06980
C1921       C  0.92738767  0.54298557  0.41891753     1.07400
C1922       C  0.58825351  0.04573004  0.40695340     1.06910
H1923       H  0.95146426  0.05632905  0.47130061     0.33590
O1924       O  0.96751983  0.04133521  0.47965050    -1.28950
H1925       H  0.55980683  0.48058240  0.44779347     0.33620
O1926       O  0.54396356  0.48949677  0.46307583    -1.30330
C1927       C  0.51799331  0.14815067  0.19541336     0.03850
C1928       C  0.48503849  0.15645362  0.20124545    -0.12300
C1929       C  0.47007289  0.17082678  0.17408565     0.01350
C1930       C  0.48480912  0.19931388  0.16105106    -0.10830
C1931       C  0.51820964  0.19680609  0.15231216     0.03840
C1932       C  0.53594950  0.17066052  0.17140297    -0.10250
H1933       H  0.47030630  0.14040503  0.21824311     0.09430
H1934       H  0.46992465  0.21662920  0.14676277     0.06960
H1935       H  0.56012544  0.16359012  0.16249685     0.06810
O1936       O  0.00216495  0.09269715  0.19674000    -0.74580
O1937       O  0.54725901  0.09932280  0.22034065    -0.53480
C1938       C  0.52384672  0.11110684  0.20313020     0.79150
O1939       O  0.91165999  0.99907680  0.30316536    -0.59180
O1940       O  0.90412935  0.45311911  0.27945320    -0.52210
C1941       C  0.89345648  0.47573863  0.29809035     0.71170
O1942       O  0.98618942  0.07670835  0.31816524    -0.73740
O1943       O  0.53946233  0.09023791  0.28904109    -0.54300
C1944       C  0.51350162  0.09804293  0.30717174     0.77170
O1945       O  0.92283847  0.02739157  0.18319827    -0.58880
O1946       O  0.91137763  0.47790494  0.21262841    -0.52000
C1947       C  0.90271444  0.50280280  0.19182994     0.73760
Zr1948     Zr  0.97643995  0.03831537  0.20424844     2.54710
O1949       O  0.93311174  0.07923810  0.20242721    -0.79440
O1950       O  0.00042811  0.02120515  0.15331601    -0.92860
Zr1951     Zr  0.96554591  0.02526028  0.30022213     2.64680
O1952       O  0.92422644  0.06786026  0.29524966    -0.97820
O1953       O  0.96168990  0.01159562  0.35889634    -0.79880
O1954       O  0.99361205  0.05336777  0.25442341    -0.83240
O1955       O  0.95036761  0.00948627  0.25002649    -2.17940
O1956       O  0.53235492  0.41158060  0.18777364    -0.66630
O1957       O  0.98158978  0.40270350  0.21417910    -0.51190
C1958       C  0.00730630  0.39220412  0.19632204     0.72140
O1959       O  0.58684524  0.47211235  0.31597287    -0.59530
O1960       O  0.59402868  0.02355286  0.28873214    -0.51510
C1961       C  0.60365123  0.99801892  0.30741620     0.73950
O1962       O  0.50411940  0.40748256  0.31004408    -0.70930
O1963       O  0.96152066  0.39723615  0.28052529    -0.49600
C1964       C  0.98333343  0.38724400  0.30071398     0.75330
O1965       O  0.58811783  0.49910890  0.17792911    -0.66260
O1966       O  0.60089011  0.03423387  0.21390903    -0.53460
C1967       C  0.60778410  0.01652602  0.18913998     0.73710
Zr1968     Zr  0.54176264  0.46815535  0.20192613     2.77540
O1969       O  0.58448140  0.42949562  0.21879791    -0.97010
O1970       O  0.52913836  0.45823522  0.14776832    -0.77830
Zr1971     Zr  0.53387578  0.45869437  0.29616789     2.70070
O1972       O  0.57154161  0.41219496  0.30106957    -0.79080
O1973       O  0.51884914  0.47321015  0.34866567    -0.98160
Zr1974     Zr  0.55108509  0.04431183  0.25120945     2.21500
Zr1975     Zr  0.95726050  0.45088380  0.24650558     2.11130
O1976       O  0.51483825  0.44222460  0.24833766    -2.46850
O1977       O  0.56082268  0.48640928  0.25001091    -0.78870
O1978       O  0.98442225  0.48001331  0.20020435    -0.71060
O1979       O  0.52349111  0.01588323  0.29780549    -2.32020
O1980       O  0.53169442  0.02680007  0.20155635    -2.28230
O1981       O  0.97641095  0.46821159  0.29650848    -0.72820
H1982       H  0.92808812  0.01631684  0.24861553     0.79170
H1983       H  0.53174386  0.02379625  0.31703402     0.80260
H1984       H  0.52042200  0.41926248  0.24926393     0.82490
H1985       H  0.54244113  0.03891918  0.18278998     0.80090
H1986       H  0.98081199  0.02198439  0.36606485     0.43130
H1987       H  0.50457813  0.45531172  0.35724188     0.42100
H1988       H  0.59301070  0.41952928  0.29193804     0.41780
H1989       H  0.59325648  0.43802055  0.23805172     0.39710
H1990       H  0.50627166  0.46414490  0.14616707     0.42840
H1991       H  0.00659997  0.04060177  0.13896786     0.37630
H1992       H  0.93632831  0.09254911  0.22090272     0.43740
H1993       H  0.91524830  0.06600387  0.27374244     0.40160
H1994       H  0.57400861  0.40917793  0.22815135     0.45080
H1995       H  0.98189454  0.01168481  0.14436953     0.43800
H1996       H  0.90686470  0.06077794  0.31181348     0.43940
H1997       H  0.54063779  0.46886772  0.35628911     0.44290
C1998       C  0.86949295  0.00237521  0.17682134     0.03850
C1999       C  0.84771108  0.98067934  0.19467708    -0.12300
C2000       C  0.83185628  0.95962593  0.17609450     0.01350
C2001       C  0.81481722  0.97624592  0.15120293    -0.10830
C2002       C  0.83022425  0.00138809  0.13095939     0.03840
C2003       C  0.85985951  0.01352774  0.14330529    -0.10250
H2004       H  0.85284772  0.97147793  0.21949664     0.09430
H2005       H  0.79571574  0.96342431  0.14153313     0.06960
H2006       H  0.87559852  0.02899990  0.12694073     0.06810
C2007       C  0.50736153  0.35865515  0.18112365     0.03850
C2008       C  0.48312431  0.33761595  0.19555424    -0.12300
C2009       C  0.46516650  0.32234228  0.17342537     0.01350
C2010       C  0.48461147  0.30426939  0.15205606    -0.10830
C2011       C  0.51123946  0.31972098  0.13479375     0.03840
C2012       C  0.52217244  0.34890465  0.14914014    -0.10250
H2013       H  0.47072987  0.34338867  0.21867750     0.09430
H2014       H  0.47333299  0.28487637  0.14117683     0.06960
H2015       H  0.53924439  0.36464041  0.13487680     0.06810
C2016       C  0.64221276  0.00753976  0.17887283     0.03850
C2017       C  0.64963132  0.97461975  0.18879386    -0.12300
C2018       C  0.66946246  0.95669888  0.16776234     0.01350
C2019       C  0.69651159  0.97362571  0.15393047    -0.10830
C2020       C  0.69087898  0.00568759  0.13952203     0.03840
C2021       C  0.66231494  0.02295891  0.15201623    -0.10250
H2022       H  0.63329474  0.96126785  0.20615134     0.09430
H2023       H  0.71605125  0.95907503  0.14300081     0.06960
H2024       H  0.65443479  0.04577902  0.13937867     0.06810
C2025       C  0.99074341  0.35088752  0.31015281     0.03850
C2026       C  0.02432296  0.34461434  0.30558240    -0.12300
C2027       C  0.03926441  0.33157863  0.33326585     0.01350
C2028       C  0.02563679  0.30220916  0.34519062    -0.10830
C2029       C  0.99207692  0.30281626  0.35351308     0.03840
C2030       C  0.97343299  0.32803155  0.33430870    -0.10250
H2031       H  0.03866224  0.36083357  0.28839512     0.09430
H2032       H  0.04108342  0.28460409  0.35827920     0.06960
H2033       H  0.94874626  0.33384625  0.34255277     0.06810
C2034       C  0.63716529  0.99960442  0.32085155     0.03850
C2035       C  0.65740496  0.02219494  0.30256452    -0.12300
C2036       C  0.67534861  0.04117166  0.32048058     0.01350
C2037       C  0.69300872  0.02287414  0.34452258    -0.10830
C2038       C  0.67909298  0.99560364  0.36325787     0.03840
C2039       C  0.64860614  0.98541590  0.35222585    -0.10250
H2040       H  0.65059610  0.03299761  0.27878882     0.09430
H2041       H  0.71307232  0.03429639  0.35383349     0.06960
H2042       H  0.63377918  0.96860580  0.36805605     0.06810
C2043       C  0.50857672  0.13232616  0.32132450     0.03850
C2044       C  0.48401833  0.15223269  0.30671668    -0.12300
C2045       C  0.46672487  0.17559659  0.32528300     0.01350
C2046       C  0.48624762  0.19295821  0.34332203    -0.10830
C2047       C  0.50603492  0.17415882  0.36468881     0.03840
C2048       C  0.51867546  0.14303808  0.35254062    -0.10250
H2049       H  0.47238050  0.14320023  0.28654382     0.09430
H2050       H  0.47669423  0.21644901  0.35019001     0.06960
H2051       H  0.53356190  0.12680858  0.36781823     0.06810
C2052       C  0.85674282  0.48135118  0.30716131     0.03850
C2053       C  0.84827213  0.51473266  0.30173981    -0.12300
C2054       C  0.83328513  0.52939027  0.32843712     0.01350
C2055       C  0.80606459  0.51369917  0.34206026    -0.10830
C2056       C  0.81067276  0.48048615  0.35215049     0.03840
C2057       C  0.83500103  0.46261066  0.33159356    -0.10250
H2058       H  0.86369047  0.53015977  0.28488546     0.09430
H2059       H  0.78908915  0.52827260  0.35656999     0.06960
H2060       H  0.84223185  0.43792549  0.34002907     0.06810
O2061       O  0.70344867  0.48685882  0.08832504    -0.74580
O2062       O  0.72341544  0.03601498  0.09474126    -0.53480
C2063       C  0.70632799  0.01106879  0.10483713     0.79150
O2064       O  0.81124275  0.41044253  0.99641948    -0.59180
O2065       O  0.78834477  0.40252880  0.46121917    -0.52210
C2066       C  0.80942742  0.38999997  0.48078260     0.71170
O2067       O  0.82278611  0.48111239  0.07802906    -0.73740
O2068       O  0.79635222  0.02886161  0.08826896    -0.54300
C2069       C  0.81708014  0.00522033  0.09607659     0.77170
O2070       O  0.69234056  0.40555552  0.02214887    -0.58880
O2071       O  0.71477273  0.40257184  0.47401951    -0.52000
C2072       C  0.69695872  0.38916934  0.49877650     0.73760
Zr2073     Zr  0.71002531  0.45916327  0.03718201     2.54710
O2074       O  0.71609600  0.41269660  0.07819338    -0.79440
O2075       O  0.65334002  0.46311859  0.02562334    -0.92860
Zr2076     Zr  0.80251973  0.46101638  0.02718340     2.64680
O2077       O  0.77737690  0.42826961  0.07415667    -0.97820
O2078       O  0.85852438  0.47149846  0.03554725    -0.79880
O2079       O  0.75653252  0.48321960  0.05421004    -0.83240
O2080       O  0.75627900  0.43776279  0.00911362    -2.17940
O2081       O  0.68554218  0.01029718  0.41776130    -0.66630
O2082       O  0.71367455  0.46373996  0.40811355    -0.51190
C2083       C  0.69312800  0.48802057  0.40141638     0.72140
O2084       O  0.81863626  0.08229392  0.47195020    -0.59530
O2085       O  0.79520503  0.08516244  0.02124553    -0.51510
C2086       C  0.81604591  0.09558786  0.99754096     0.73950
O2087       O  0.80710726  0.00412135  0.40199219    -0.70930
O2088       O  0.78156200  0.45242930  0.40115740    -0.49600
C2089       C  0.80125984  0.47496296  0.38960691     0.75330
O2090       O  0.69601805  0.08147702  0.49794830    -0.66260
O2091       O  0.72422417  0.09267359  0.04042026    -0.53460
C2092       C  0.70567851  0.10160273  0.01698890     0.73710
Zr2093     Zr  0.70473132  0.02967425  0.46877581     2.77540
O2094       O  0.71759691  0.06703718  0.42050448    -0.97010
O2095       O  0.64759859  0.01992934  0.48007238    -0.77830
Zr2096     Zr  0.79762118  0.03003676  0.45538808     2.70070
O2097       O  0.80304733  0.07214618  0.40972072    -0.79080
O2098       O  0.85058877  0.01252277  0.46673687    -0.98160
Zr2099     Zr  0.75778872  0.04098772  0.04270444     2.21500
Zr2100     Zr  0.75045141  0.44844911  0.45551343     2.11130
O2101       O  0.75046805  0.00720317  0.44035955    -2.46850
O2102       O  0.75172337  0.05245140  0.48494439    -0.78870
O2103       O  0.70596052  0.47203783  0.48442996    -0.71060
O2104       O  0.80266504  0.01691403  0.01374987    -2.32020
O2105       O  0.70983553  0.01781398  0.02455796    -2.28230
O2106       O  0.79952826  0.46637506  0.47540447    -0.72820
H2107       H  0.75642632  0.41450842  0.01505212     0.79170
H2108       H  0.82176337  0.02574368  0.02106136     0.80260
H2109       H  0.74937891  0.01212562  0.41699171     0.82490
H2110       H  0.69076407  0.02730937  0.03537851     0.80090
H2111       H  0.86350719  0.49364899  0.02549111     0.43130
H2112       H  0.85779942  0.00021634  0.44771387     0.42100
H2113       H  0.79231880  0.09213230  0.41766251     0.41780
H2114       H  0.73903522  0.07509525  0.42420844     0.39710
H2115       H  0.64259147  0.00764293  0.46154625     0.42840
H2116       H  0.64556155  0.48505770  0.03087030     0.37630
H2117       H  0.71997220  0.42215172  0.09897886     0.43740
H2118       H  0.77923528  0.40468399  0.07111135     0.40160
H2119       H  0.72200213  0.05435227  0.40126539     0.45080
H2120       H  0.64100887  0.44749417  0.04095975     0.43800
H2121       H  0.78916182  0.43182743  0.09350136     0.43940
H2122       H  0.85948811  0.03451038  0.46270247     0.44290
O2123       O  0.99135635  0.31159608  0.08249137    -0.74580
O2124       O  0.54218667  0.28999303  0.09111358    -0.53480
C2125       C  0.51694080  0.30824781  0.09948032     0.79150
O2126       O  0.92646854  0.18013567  0.02297342    -0.59180
O2127       O  0.91352960  0.20370560  0.47303181    -0.52210
C2128       C  0.90487639  0.18653004  0.50041193     0.71170
O2129       O  0.00165830  0.19945373  0.09781563    -0.73740
O2130       O  0.54950908  0.22301138  0.10280609    -0.54300
C2131       C  0.52437677  0.20752177  0.11523526     0.77170
O2132       O  0.92174885  0.29939211  0.99838805    -0.58880
O2133       O  0.91349035  0.27878351  0.46318575    -0.52000
C2134       C  0.90247144  0.30241653  0.48012593     0.73760
Zr2135     Zr  0.97168320  0.29349700  0.03087494     2.54710
O2136       O  0.93611668  0.27609052  0.07920934    -0.79440
O2137       O  0.98797180  0.35024125  0.02375976    -0.92860
Zr2138     Zr  0.97719619  0.20004452  0.04372971     2.64680
O2139       O  0.93699912  0.20602893  0.08900128    -0.97820
O2140       O  0.99010395  0.14266454  0.05276874    -0.79880
O2141       O  0.99807080  0.24878373  0.05768652    -0.83240
O2142       O  0.95154895  0.24461930  0.01447525    -2.17940
O2143       O  0.50758931  0.29788363  0.40615696    -0.66630
O2144       O  0.96317263  0.27114618  0.40167121    -0.51190
C2145       C  0.98619337  0.29023398  0.39010490     0.72140
O2146       O  0.58649711  0.17731721  0.50215288    -0.59530
O2147       O  0.60285763  0.21268002  0.03806704    -0.51510
C2148       C  0.60942156  0.18801849  0.02048657     0.73950
O2149       O  0.52731985  0.17788312  0.41978968    -0.70930
O2150       O  0.98022258  0.20460217  0.41403431    -0.49600
C2151       C  0.00401982  0.18453599  0.40582352     0.75330
O2152       O  0.58558991  0.30578418  0.47984255    -0.66260
O2153       O  0.60082438  0.28797286  0.02955088    -0.53460
C2154       C  0.60692239  0.30477259  0.00151734     0.73710
Zr2155     Zr  0.53470244  0.29139461  0.45837046     2.77540
O2156       O  0.57540548  0.28581454  0.41279084    -0.97010
O2157       O  0.52651329  0.34955272  0.44655604    -0.77830
Zr2158     Zr  0.53828970  0.19775125  0.47413730     2.70070
O2159       O  0.58042136  0.21613065  0.43384576    -0.79080
O2160       O  0.51921333  0.14328246  0.48696068    -0.98160
Zr2161     Zr  0.55508341  0.25095855  0.04620492     2.21500
Zr2162     Zr  0.95982575  0.24116504  0.45780712     2.11130
O2163       O  0.51482813  0.24238913  0.44380933    -2.46850
O2164       O  0.55764127  0.24688989  0.49057371    -0.78870
O2165       O  0.98055400  0.29206648  0.47053270    -0.71060
O2166       O  0.53372244  0.20113484  0.03004098    -2.32020
O2167       O  0.52832855  0.29483693  0.01573778    -2.28230
O2168       O  0.98243287  0.19805795  0.49164112    -0.72820
H2169       H  0.92878274  0.24356448  0.02102017     0.79170
H2170       H  0.54379695  0.18268247  0.04196765     0.80260
H2171       H  0.52171169  0.24115440  0.42090711     0.82490
H2172       H  0.53818847  0.31429228  0.02114184     0.80090
H2173       H  0.01203083  0.14095532  0.06076616     0.43130
H2174       H  0.52834111  0.13611164  0.50819532     0.42100
H2175       H  0.59513476  0.22821797  0.44607293     0.41780
H2176       H  0.56942663  0.26677243  0.40168325     0.39710
H2177       H  0.50304402  0.35224942  0.44416369     0.42840
H2178       H  0.00697692  0.35249368  0.03644234     0.37630
H2179       H  0.95020003  0.26579048  0.09593163     0.43740
H2180       H  0.91661175  0.21068427  0.07820820     0.40160
H2181       H  0.57082127  0.30437509  0.39655126     0.45080
H2182       H  0.97094137  0.36146435  0.03640179     0.43800
H2183       H  0.93516380  0.18408671  0.10075578     0.43940
H2184       H  0.49554543  0.14311380  0.49127983     0.44290
C2185       C  0.69059033  0.13622943  0.01118586     0.03850
C2186       C  0.66128782  0.14867794  0.02805602    -0.12300
C2187       C  0.64400461  0.17697380  0.01317635     0.01350
C2188       C  0.65497002  0.18907495  0.98115850    -0.10830
C2189       C  0.67315307  0.16794603  0.96218340     0.03840
C2190       C  0.69851752  0.15175480  0.97924044    -0.10250
H2191       H  0.65098481  0.13540666  0.05018902     0.09430
H2192       H  0.64084393  0.20797281  0.96813881     0.06960
H2193       H  0.71807232  0.14098492  0.96436007     0.06810
C2194       C  0.68349892  0.35961484  0.98897094     0.03850
C2195       C  0.69216459  0.34887814  0.95738382    -0.12300
C2196       C  0.66785839  0.33593277  0.44398068     0.01350
C2197       C  0.65040476  0.31469549  0.95817464    -0.10830
C2198       C  0.63955634  0.31933466  0.99129866     0.03840
C2199       C  0.65573292  0.34411560  0.00675182    -0.10250
H2200       H  0.71409303  0.35363059  0.44867896     0.09430
H2201       H  0.63755675  0.29482081  0.44841671     0.06960
H2202       H  0.64592591  0.35246118  0.02993147     0.06810
C2203       C  0.83064453  0.12884567  0.00179637     0.03850
C2204       C  0.81337283  0.14686330  0.02559411    -0.12300
C2205       C  0.82878283  0.16230520  0.54912335     0.01350
C2206       C  0.85580163  0.18151706  0.03050798    -0.10830
C2207       C  0.87459086  0.16931695  0.00389683     0.03840
C2208       C  0.86241316  0.14092072  0.99014235    -0.10250
H2209       H  0.78656649  0.14001878  0.53775617     0.09430
H2210       H  0.86581767  0.20003789  0.04378866     0.06960
H2211       H  0.87759761  0.12788812  0.97269733     0.06810
C2212       C  0.87194305  0.31885400  0.46906760     0.03850
C2213       C  0.86494189  0.31520435  0.43616538    -0.12300
C2214       C  0.85282669  0.34308264  0.41877281     0.01350
C2215       C  0.82502871  0.35444010  0.43584753    -0.10830
C2216       C  0.82804224  0.36082583  0.46907708     0.03840
C2217       C  0.85339928  0.34329681  0.48579972    -0.10250
H2218       H  0.87803643  0.29738166  0.42194358     0.09430
H2219       H  0.80682440  0.36695192  0.42134987     0.06870
H2220       H  0.85905565  0.34905776  0.51006711     0.06810
C2221       C  0.91082138  0.36095689  0.41219687     0.24310
C2222       C  0.87781785  0.36911091  0.40928666    -0.23800
C2223       C  0.86879945  0.40236153  0.41105579     0.19220
C2224       C  0.88797736  0.42279343  0.42648941     0.24250
C2225       C  0.91823451  0.41159559  0.43725435    -0.23740
C2226       C  0.92976653  0.38074727  0.42855067     0.19160
F2227       F  0.94225980  0.35385427  0.99119475    -0.13700
F2228       F  0.91045574  0.32098188  0.04969853    -0.16060
F2229       F  0.87551637  0.45255361  0.43301111    -0.16060
F2230       F  0.83931473  0.41373124  0.40258986    -0.13700
C2231       C  0.85766875  0.08575319  0.56456353     0.24310
C2232       C  0.88910149  0.09754887  0.55708630    -0.23800
C2233       C  0.89653711  0.12647562  0.07265778     0.19220
C2234       C  0.87158700  0.14558132  0.08713502     0.24250
C2235       C  0.83989627  0.13982568  0.57809447    -0.23740
C2236       C  0.83342317  0.10635812  0.57826242     0.19160
F2237       F  0.80272307  0.09616734  0.58401487    -0.13700
F2238       F  0.85008871  0.05579871  0.55692818    -0.16060
F2239       F  0.87785213  0.17288264  0.10137807    -0.16060
F2240       F  0.92737192  0.13576981  0.07241730    -0.13700
C2241       C  0.65638675  0.40146751  0.92903473     0.24310
C2242       C  0.64517514  0.36956538  0.92874436    -0.23800
C2243       C  0.61488155  0.36405129  0.43441141     0.19220
C2244       C  0.59931838  0.38501300  0.45572524     0.24250
C2245       C  0.61027091  0.41441338  0.96684087    -0.23740
C2246       C  0.63942464  0.42361837  0.94899909     0.19160
F2247       F  0.65256436  0.45248502  0.95264285    -0.13700
F2248       F  0.68583751  0.40875332  0.91452936    -0.16060
F2249       F  0.57070267  0.37630059  0.47122978    -0.16060
F2250       F  0.59899906  0.33891196  0.42535166    -0.13700
C2251       C  0.63408440  0.10111425  0.97748191     0.24310
C2252       C  0.60191530  0.11156652  0.97632574    -0.23800
C2253       C  0.60897317  0.14942636  0.44104682     0.19220
C2254       C  0.63536151  0.17077686  0.43369666     0.24250
C2255       C  0.65324157  0.14674341  0.94296330    -0.23740
C2256       C  0.65643687  0.11432499  0.95318887     0.19160
F2257       F  0.68313249  0.09867415  0.94292406    -0.13700
F2258       F  0.64313342  0.07797763  0.00078757    -0.16060
F2259       F  0.63383597  0.19680393  0.41102770    -0.16060
F2260       F  0.58108281  0.15529097  0.42679874    -0.13700
C2261       C  0.88222215  0.06161235  0.39830459     0.24310
C2262       C  0.90487311  0.54500509  0.39444208    -0.23800
C2263       C  0.90206697  0.51502928  0.38327459     0.19220
C2264       C  0.87611892  0.50933063  0.36760432     0.24250
C2265       C  0.85628951  0.53529471  0.35364739    -0.23740
C2266       C  0.86425042  0.06222540  0.37032199     0.19160
F2267       F  0.84878027  0.09029932  0.35940842    -0.13700
F2268       F  0.88290719  0.08845152  0.41528478    -0.16060
F2269       F  0.87053415  0.47738785  0.37100220    -0.16060
F2270       F  0.92118460  0.48879300  0.39340461    -0.13700
C2271       C  0.92802609  0.16947147  0.38744056     0.24310
C2272       C  0.43480989  0.16530031  0.34372213    -0.23800
C2273       C  0.42851138  0.13255641  0.34162737     0.19220
C2274       C  0.44424301  0.11031934  0.36378073     0.24250
C2275       C  0.45522422  0.12133615  0.39283904    -0.23740
C2276       C  0.93970462  0.14774210  0.41306764     0.19160
F2277       F  0.94206411  0.15767493  0.44343532    -0.13700
F2278       F  0.92013019  0.20092991  0.39286566    -0.16060
F2279       F  0.44914640  0.07924593  0.35654424    -0.16060
F2280       F  0.41866963  0.12333916  0.31311441    -0.13700
C2281       C  0.64446808  0.56985614  0.38907122     0.24310
C2282       C  0.61122086  0.06144134  0.38048358    -0.23800
C2283       C  0.60205340  0.06982352  0.34802531     0.19220
C2284       C  0.62595658  0.07815330  0.32261637     0.24250
C2285       C  0.65873477  0.07316433  0.32952880    -0.23740
C2286       C  0.66628881  0.58140475  0.36324107     0.19160
F2287       F  0.69606902  0.59063938  0.36918395    -0.13700
F2288       F  0.65558293  0.56241786  0.41847229    -0.16060
F2289       F  0.61775928  0.08407364  0.29103267    -0.16060
F2290       F  0.57105662  0.06794948  0.34055860    -0.13700
C2291       C  0.56828526  0.37464777  0.36188852     0.24310
C2292       C  0.04223785  0.35665143  0.35797289    -0.23800
C2293       C  0.01419094  0.37090181  0.37375091     0.19220
C2294       C  0.01370882  0.40162763  0.38351213     0.24250
C2295       C  0.04205246  0.41702521  0.38618680    -0.23740
C2296       C  0.56781690  0.40277955  0.37949143     0.19160
F2297       F  0.59562456  0.41807840  0.38268556    -0.13700
F2298       F  0.59653626  0.36377431  0.34727792    -0.16060
F2299       F  0.98504586  0.41467755  0.39518636    -0.16060
F2300       F  0.98669504  0.35574975  0.38294319    -0.13700
C2301       C  0.59579014  0.43841114  0.13135816     0.24310
C2302       C  0.60214880  0.96621822  0.10842284    -0.23800
C2303       C  0.63440176  0.97341372  0.10145872     0.19220
C2304       C  0.65684374  0.94906066  0.11100286     0.24250
C2305       C  0.65242443  0.93787111  0.14417993    -0.23740
C2306       C  0.62061025  0.42616756  0.15200552     0.19160
F2307       F  0.61599167  0.39954846  0.17364088    -0.13700
F2308       F  0.57008525  0.41978087  0.12882098    -0.16060
F2309       F  0.65913154  0.92458631  0.09080674    -0.16060
F2310       F  0.64309806  0.00089054  0.08256043    -0.13700
C2311       C  0.46005772  0.39639206  0.14176165     0.24310
C2312       C  0.46747525  0.38912336  0.10922473    -0.23800
C2313       C  0.94697394  0.36580118  0.09941777     0.19220
C2314       C  0.93402863  0.34144607  0.12311768     0.24250
C2315       C  0.43941813  0.34387797  0.15664078    -0.23740
C2316       C  0.43980451  0.37633840  0.16345431     0.19160
F2317       F  0.43218404  0.38358804  0.19474266    -0.13700
F2318       F  0.47401221  0.42149968  0.15278114    -0.16060
F2319       F  0.91124306  0.32133734  0.11533454    -0.16060
F2320       F  0.93151266  0.37424550  0.07225291    -0.13700
C2321       C  0.90601727  0.94477805  0.15177380     0.24310
C2322       C  0.89968563  0.94972837  0.11842230    -0.23800
C2323       C  0.87243804  0.43262392  0.10944473     0.19220
C2324       C  0.84888043  0.42049699  0.13359457     0.24250
C2325       C  0.85157328  0.92972554  0.16586027    -0.23740
C2326       C  0.88338850  0.92892127  0.17479510     0.19160
F2327       F  0.88874579  0.92427521  0.20728086    -0.13700
F2328       F  0.93262757  0.95715942  0.16197528    -0.16060
F2329       F  0.82439426  0.40251890  0.12579528    -0.16060
F2330       F  0.87106216  0.42679976  0.07800190    -0.13700
C2331       C  0.93616071  0.13024174  0.15165450     0.24310
C2332       C  0.46541758  0.14608498  0.14984793    -0.23800
C2333       C  0.49263806  0.13173364  0.13244210     0.19220
C2334       C  0.49230837  0.10139285  0.12304665     0.24250
C2335       C  0.46323528  0.08800162  0.11942242    -0.23740
C2336       C  0.93414927  0.10193427  0.13468721     0.19160
F2337       F  0.90538834  0.08776279  0.13323039    -0.13700
F2338       F  0.90949306  0.14238174  0.16811234    -0.16060
F2339       F  0.52055897  0.08873544  0.10935383    -0.16060
F2340       F  0.52087713  0.14508845  0.12228643    -0.13700
O2341       O  0.98357760  0.08690510  0.56397703    -0.85770
O2342       O  0.99300188  0.40770906  0.53513985    -0.85940
O2343       O  0.94640959  0.50871007  0.55174733    -0.87610
O2344       O  0.55185541  0.98841965  0.58483388    -0.86360
O2345       O  0.59402990  0.99726192  0.54682566    -0.85950
O2346       O  0.90500830  0.48851025  0.53350615    -0.87320
O2347       O  0.99808682  0.43946042  0.57664467    -0.85800
O2348       O  0.96565715  0.04126009  0.59430810    -0.85390
Zr2349     Zr  0.99843146  0.99713378  0.57278755     2.84310
O2350       O  0.54573253  0.47704193  0.52663987    -1.07370
O2351       O  0.96785845  0.03226238  0.54028549    -1.08090
C2352       C  0.96948064  0.07188426  0.58984514     1.07340
C2353       C  0.98821249  0.41352164  0.56577525     1.07280
C2354       C  0.92431267  0.48809488  0.55579775     1.10260
C2355       C  0.58162626  0.98585785  0.57564093     1.08040
H2356       H  0.95986910  0.45182639  0.52721327     0.33600
O2357       O  0.97426188  0.46888669  0.51922244    -1.28320
H2358       H  0.54937446  0.06130502  0.54345959     0.33270
O2359       O  0.53870209  0.04872532  0.52877347    -1.30000
O2360       O  0.52666257  0.42231816  0.95398449    -0.85770
O2361       O  0.47416512  0.10144253  0.95824603    -0.87260
O2362       O  0.91897906  0.45199518  0.99563687    -0.85840
O2363       O  0.60376651  0.46784281  0.47808583    -0.85890
O2364       O  0.59678293  0.07187583  0.49347677    -0.85610
O2365       O  0.90775133  0.04908219  0.03486098    -0.85410
O2366       O  0.95051634  0.52612838  0.92249578    -0.85780
O2367       O  0.55084934  0.03672130  0.91247333    -0.85240
O2368       O  0.91102638  0.52149426  0.96401128    -0.86310
O2369       O  0.58929474  0.03427139  0.94995553    -0.85470
O2370       O  0.96715078  0.42263535  0.46174700    -0.85860
O2371       O  0.93972767  0.09392701  0.02797306    -0.85590
O2372       O  0.54681419  0.09913795  0.99455092    -0.85240
O2373       O  0.57015565  0.42759972  0.49917059    -0.85640
O2374       O  0.51658311  0.46580075  0.91680269    -0.85940
O2375       O  0.48471400  0.06835738  0.91627015    -0.87280
Zr2376     Zr  0.51490560  0.44794196  0.49458178     2.83100
Zr2377     Zr  0.99359453  0.07367389  0.01038297     2.83500
Zr2378     Zr  0.93651488  0.50181227  0.01258342     2.84090
Zr2379     Zr  0.57401536  0.01897241  0.49287681     2.83360
Zr2380     Zr  0.50230679  0.51645048  0.94314738     2.84220
O2381       O  0.53124180  0.04708754  0.97475850    -1.07850
O2382       O  0.97300734  0.47614118  0.97491819    -1.07350
C2383       C  0.52642760  0.43606026  0.92480982     1.07310
C2384       C  0.47200334  0.09430709  0.92803463     1.09930
C2385       C  0.93051142  0.42272657  0.99477605     1.07480
C2386       C  0.59548466  0.43771473  0.48165561     1.07840
C2387       C  0.58776868  0.09744089  0.47557437     1.07420
C2388       C  0.91349811  0.07918975  0.03878748     1.06980
C2389       C  0.92130530  0.52875467  0.93410530     1.07400
C2390       C  0.57942344  0.04173516  0.92053946     1.06910
H2391       H  0.95002186  0.05582827  0.97213395     0.33590
O2392       O  0.96635303  0.04129710  0.98057224    -1.28950
H2393       H  0.55325247  0.47548850  0.95649734     0.33620
O2394       O  0.53743827  0.48316022  0.97259744    -1.30330
C2395       C  0.51251969  0.14910390  0.70543745     0.03850
C2396       C  0.47912858  0.15547077  0.70820398    -0.12300
C2397       C  0.46559359  0.16369364  0.67853364     0.01350
C2398       C  0.47766046  0.19261905  0.66351598    -0.10830
C2399       C  0.51115131  0.19235882  0.65537991     0.03840
C2400       C  0.52998288  0.17111022  0.67909242    -0.10250
H2401       H  0.46422015  0.14131717  0.72679871     0.09430
H2402       H  0.46162320  0.20734227  0.64805461     0.06960
H2403       H  0.55522138  0.16593290  0.67249808     0.06810
O2404       O  0.99894135  0.09365716  0.69768078    -0.74580
O2405       O  0.54361753  0.09902629  0.72917113    -0.53480
C2406       C  0.51824934  0.11154842  0.71548379     0.79150
O2407       O  0.91014340  0.99921534  0.80147192    -0.59180
O2408       O  0.89839363  0.45482668  0.78174257    -0.52210
C2409       C  0.88903721  0.47683218  0.80121299     0.71170
O2410       O  0.98392957  0.07805141  0.81583230    -0.73740
O2411       O  0.53505868  0.08670657  0.79590026    -0.54300
C2412       C  0.50949455  0.09359387  0.81498191     0.77170
O2413       O  0.92050935  0.02737180  0.68260026    -0.58880
O2414       O  0.90222387  0.47331484  0.71636955    -0.52000
C2415       C  0.89196343  0.50297858  0.70576835     0.73760
Zr2416     Zr  0.97421966  0.03864787  0.70288680     2.54710
O2417       O  0.92998792  0.07844887  0.69947226    -0.79440
O2418       O  0.99803341  0.02261039  0.65142177    -0.92860
Zr2419     Zr  0.96339689  0.02610503  0.79889938     2.64680
O2420       O  0.92207836  0.06870732  0.79335073    -0.97820
O2421       O  0.95938793  0.01269905  0.85765074    -0.79880
O2422       O  0.99109368  0.05408481  0.75292871    -0.83240
O2423       O  0.94845149  0.00984289  0.74880876    -2.17940
O2424       O  0.52212069  0.41343977  0.68594397    -0.66630
O2425       O  0.96998214  0.40632759  0.71437597    -0.51190
C2426       C  0.99462076  0.39677144  0.69504573     0.72140
O2427       O  0.58174728  0.46972624  0.81924911    -0.59530
O2428       O  0.59051383  0.02101821  0.79373554    -0.51510
C2429       C  0.60076182  0.99552453  0.81178065     0.73950
O2430       O  0.49575619  0.40691081  0.81609393    -0.70930
O2431       O  0.95744214  0.39749927  0.78160335    -0.49600
C2432       C  0.97786211  0.38789962  0.80327188     0.75330
O2433       O  0.58320429  0.49644485  0.68291068    -0.66260
O2434       O  0.59754767  0.03254899  0.71793462    -0.53460
C2435       C  0.60409863  0.01501006  0.69274506     0.73710
Zr2436     Zr  0.53520636  0.46737859  0.70456416     2.77540
O2437       O  0.57645907  0.42633905  0.71917447    -0.97010
O2438       O  0.53536764  0.47669945  0.64625564    -0.77830
Zr2439     Zr  0.52842870  0.45589097  0.79958304     2.70070
O2440       O  0.56750375  0.41050913  0.80261994    -0.79080
O2441       O  0.51381727  0.47079028  0.85325810    -0.98160
Zr2442     Zr  0.54783016  0.04210213  0.75714541     2.21500
Zr2443     Zr  0.95070900  0.45179541  0.75034388     2.11130
O2444       O  0.50871725  0.43982479  0.75079020    -2.46850
O2445       O  0.55466508  0.48455206  0.75312169    -0.78870
O2446       O  0.97724225  0.48267651  0.70487519    -0.71060
O2447       O  0.52147747  0.01216658  0.80373977    -2.32020
O2448       O  0.52651964  0.02519447  0.70912992    -2.28230
O2449       O  0.97209925  0.46606144  0.80102050    -0.72820
H2450       H  0.92618251  0.01666313  0.74732159     0.79170
H2451       H  0.52991749  0.01956535  0.82313499     0.80260
H2452       H  0.51375373  0.41678116  0.75060217     0.82490
H2453       H  0.53885839  0.03726853  0.69163719     0.80090
H2454       H  0.97869259  0.02272375  0.86486175     0.43130
H2455       H  0.49911196  0.45343008  0.86234220     0.42100
H2456       H  0.58856929  0.41861755  0.79309698     0.41780
H2457       H  0.58538859  0.43348280  0.73900943     0.39710
H2458       H  0.52034325  0.46046809  0.64060975     0.42840
H2459       H  0.00551622  0.04207618  0.63788120     0.37630
H2460       H  0.93233396  0.09213778  0.71785947     0.43740
H2461       H  0.91355719  0.06692103  0.77161152     0.40160
H2462       H  0.56522341  0.40606038  0.72723674     0.45080
H2463       H  0.97914017  0.01457696  0.64176103     0.43800
H2464       H  0.90442722  0.06151598  0.80948926     0.43940
H2465       H  0.53495290  0.46692173  0.86261879     0.44290
C2466       C  0.86746000  0.00213116  0.67649536     0.03850
C2467       C  0.84587573  0.98001317  0.69403734    -0.12300
C2468       C  0.83038302  0.95906933  0.67504770     0.01350
C2469       C  0.81321327  0.97599348  0.65042817    -0.10830
C2470       C  0.82862444  0.00134869  0.63048668     0.03840
C2471       C  0.85799660  0.01355558  0.64307989    -0.10250
H2472       H  0.85099560  0.97057100  0.71879227     0.09430
H2473       H  0.79413331  0.96330455  0.64059311     0.06960
H2474       H  0.87369200  0.02929378  0.62695793     0.06810
C2475       C  0.49376496  0.36271774  0.67841822     0.03850
C2476       C  0.46499875  0.34655150  0.68925651    -0.12300
C2477       C  0.44808958  0.33535120  0.66444566     0.01350
C2478       C  0.46704787  0.31343211  0.64649154    -0.10830
C2479       C  0.49839966  0.32273279  0.63397861     0.03840
C2480       C  0.51138709  0.35004200  0.64934809    -0.10250
H2481       H  0.45058537  0.35394840  0.71064954     0.09430
H2482       H  0.45446749  0.29584878  0.63438144     0.06960
H2483       H  0.53253125  0.36221471  0.63797155     0.06810
C2484       C  0.63837452  0.00552173  0.68074530     0.03850
C2485       C  0.64421342  0.97171577  0.68815180    -0.12300
C2486       C  0.66372227  0.95452226  0.66622205     0.01350
C2487       C  0.69158146  0.97094393  0.65417168    -0.10830
C2488       C  0.68728466  0.00351052  0.64070819     0.03840
C2489       C  0.65907823  0.02130498  0.65410940    -0.10250
H2490       H  0.62723524  0.95790321  0.70448164     0.09430
H2491       H  0.71111130  0.95617597  0.64357318     0.06960
H2492       H  0.65208894  0.04495806  0.64258622     0.06810
C2493       C  0.98715302  0.35196447  0.81039274     0.03850
C2494       C  0.02097937  0.34838231  0.80671948    -0.12300
C2495       C  0.03549885  0.33598017  0.83478891     0.01350
C2496       C  0.02419628  0.30505433  0.84423969    -0.10830
C2497       C  0.99076717  0.30327194  0.85211919     0.03840
C2498       C  0.97086915  0.32720376  0.83301391    -0.10250
H2499       H  0.03446797  0.36580178  0.79017811     0.09430
H2500       H  0.04047128  0.28780135  0.85662575     0.06960
H2501       H  0.94569448  0.33104174  0.84089532     0.06810
C2502       C  0.63440506  0.99852710  0.82466983     0.03850
C2503       C  0.65257014  0.02374500  0.80746227    -0.12300
C2504       C  0.66939849  0.04275993  0.82638361     0.01350
C2505       C  0.68989259  0.02382211  0.84703596    -0.10830
C2506       C  0.67792224  0.99535199  0.86522624     0.03840
C2507       C  0.64765665  0.98369540  0.85493495    -0.10250
H2508       H  0.64496899  0.03542387  0.78434898     0.09430
H2509       H  0.71001677  0.03568070  0.85591594     0.06960
H2510       H  0.63436774  0.96539993  0.87050819     0.06810
C2511       C  0.50376429  0.12791454  0.82781464     0.03850
C2512       C  0.47696228  0.14553641  0.81486296    -0.12300
C2513       C  0.46065875  0.16954278  0.83318850     0.01350
C2514       C  0.48133180  0.18906224  0.84746802    -0.10830
C2515       C  0.50418917  0.17251613  0.86705036     0.03840
C2516       C  0.51645398  0.14095738  0.85641393    -0.10250
H2517       H  0.46384814  0.13461426  0.79682745     0.09430
H2518       H  0.47170909  0.21270333  0.85382680     0.06960
H2519       H  0.53336330  0.12636933  0.87088889     0.06810
C2520       C  0.85333920  0.48627186  0.80621417     0.03850
C2521       C  0.84944067  0.52048358  0.80295923    -0.12300
C2522       C  0.83553414  0.53428100  0.83050238     0.01350
C2523       C  0.80556398  0.52167233  0.83968000    -0.10830
C2524       C  0.80620461  0.48775705  0.84787069     0.03840
C2525       C  0.82873319  0.46873447  0.82751681    -0.10250
H2526       H  0.86711608  0.53481665  0.78776415     0.09430
H2527       H  0.78901373  0.53699334  0.85381062     0.06960
H2528       H  0.83291008  0.44305902  0.83482927     0.06810
O2529       O  0.70175626  0.48416361  0.59229460    -0.74580
O2530       O  0.72048346  0.03476254  0.59585538    -0.53480
C2531       C  0.70425120  0.00918629  0.60620906     0.79150
O2532       O  0.81636359  0.40226180  0.50748854    -0.59180
O2533       O  0.78894448  0.39934477  0.95055171    -0.52210
C2534       C  0.80826167  0.39113108  0.97355087     0.71170
O2535       O  0.80880515  0.47202222  0.59063214    -0.73740
O2536       O  0.79431676  0.02847556  0.58840534    -0.54300
C2537       C  0.81588194  0.00549680  0.59556862     0.77170
O2538       O  0.69146064  0.40227032  0.52632615    -0.58880
O2539       O  0.71738578  0.40396488  0.97086760    -0.52000
C2540       C  0.69876760  0.39142351  0.99525935     0.73760
Zr2541     Zr  0.70862426  0.45570150  0.54136957     2.54710
O2542       O  0.72554819  0.41251289  0.58215618    -0.79440
O2543       O  0.65328972  0.44761012  0.52759313    -0.92860
Zr2544     Zr  0.80102616  0.45339068  0.53396249     2.64680
O2545       O  0.80687550  0.40830970  0.57627089    -0.97820
O2546       O  0.85764230  0.45833742  0.51836654    -0.79880
O2547       O  0.75499962  0.47794475  0.55921852    -0.83240
O2548       O  0.75418718  0.43359768  0.51349901    -2.17940
O2549       O  0.68717078  0.01226771  0.91765530    -0.66630
O2550       O  0.71208653  0.46502272  0.90641271    -0.51190
C2551       C  0.69055711  0.48864209  0.90045202     0.72140
O2552       O  0.82379203  0.07925330  0.97219330    -0.59530
O2553       O  0.79219143  0.08583240  0.52246664    -0.51510
C2554       C  0.81212264  0.09738719  0.49832129     0.73950
O2555       O  0.80976280  0.00249790  0.90201555    -0.70930
O2556       O  0.78076732  0.45597369  0.89590843    -0.49600
C2557       C  0.79754388  0.48070101  0.88458641     0.75330
O2558       O  0.70151637  0.08249777  0.99442470    -0.66260
O2559       O  0.72026611  0.09037533  0.54361658    -0.53460
C2560       C  0.70046840  0.09956208  0.52148605     0.73710
Zr2561     Zr  0.70879344  0.03091080  0.96693317     2.77540
O2562       O  0.72750887  0.06972453  0.92068830    -0.97010
O2563       O  0.65147692  0.02404243  0.98077061    -0.77830
Zr2564     Zr  0.80139515  0.02759852  0.95578726     2.70070
O2565       O  0.80903027  0.07005025  0.91085366    -0.79080
O2566       O  0.85026604  0.00069971  0.97081012    -0.98160
Zr2567     Zr  0.75536964  0.04045914  0.54340597     2.21500
Zr2568     Zr  0.75234745  0.44934451  0.95074143     2.11130
O2569       O  0.75370754  0.00661098  0.93948977    -2.46850
O2570       O  0.75595673  0.05163389  0.98420670    -0.78870
O2571       O  0.70726111  0.47300706  0.98001409    -0.71060
O2572       O  0.80043985  0.01821507  0.51293096    -2.32020
O2573       O  0.70764220  0.01600439  0.52613831    -2.28230
O2574       O  0.80073925  0.47207595  0.96861137    -0.72820
H2575       H  0.75438411  0.41017696  0.51821498     0.79170
H2576       H  0.81951422  0.02764671  0.51961445     0.80260
H2577       H  0.75247481  0.01096820  0.91608344     0.82490
H2578       H  0.68856337  0.02492840  0.53740272     0.80090
H2579       H  0.86239021  0.44353485  0.50067385     0.43130
H2580       H  0.86180273  0.99623609  0.94971959     0.42100
H2581       H  0.79862175  0.09030044  0.91849312     0.41780
H2582       H  0.74456515  0.08231889  0.92892554     0.39710
H2583       H  0.64530219  0.00643622  0.96779391     0.42840
H2584       H  0.64318578  0.46939200  0.52334789     0.37630
H2585       H  0.73657715  0.42385159  0.59837601     0.43740
H2586       H  0.79177950  0.39173743  0.57102031     0.40160
H2587       H  0.73793222  0.05888999  0.90188264     0.45080
H2588       H  0.63997724  0.43592883  0.54557125     0.43800
H2589       H  0.82860654  0.39855402  0.57130962     0.43940
H2590       H  0.86004078  0.01947967  0.97916040     0.44290
O2591       O  0.98867899  0.31953772  0.57759551    -0.74580
O2592       O  0.53352423  0.29096612  0.59395615    -0.53480
C2593       C  0.50766673  0.30938731  0.60014984     0.79150
O2594       O  0.92160583  0.18524628  0.52643098    -0.59180
O2595       O  0.91493257  0.20345302  0.97196021    -0.52210
C2596       C  0.90814202  0.18397049  0.99820997     0.71170
O2597       O  0.99654639  0.20432959  0.60204569    -0.73740
O2598       O  0.54217370  0.22077860  0.60565534    -0.54300
C2599       C  0.51794073  0.20311337  0.61768385     0.77170
O2600       O  0.91729376  0.31373791  0.50331674    -0.58880
O2601       O  0.91001731  0.27675079  0.95322391    -0.52000
C2602       C  0.90209174  0.29618549  0.97573976     0.73760
Zr2603     Zr  0.96960917  0.29978394  0.52694303     2.54710
O2604       O  0.92223222  0.29949596  0.56469760    -0.79440
O2605       O  0.98096288  0.35223760  0.49731513    -0.92860
Zr2606     Zr  0.97164464  0.20594786  0.54831751     2.64680
O2607       O  0.93062682  0.21552133  0.59202630    -0.97820
O2608       O  0.98330896  0.14896237  0.56145009    -0.79880
O2609       O  0.99301628  0.25584076  0.55911858    -0.83240
O2610       O  0.94917424  0.24941887  0.51515962    -2.17940
O2611       O  0.50824064  0.29822513  0.90624280    -0.66630
O2612       O  0.96277248  0.27134602  0.89982110    -0.51190
C2613       C  0.98526843  0.29093758  0.88853710     0.72140
O2614       O  0.58959637  0.17693291  0.00139685    -0.59530
O2615       O  0.59679053  0.21160452  0.54166799    -0.51510
C2616       C  0.60455568  0.18741365  0.52352922     0.73950
O2617       O  0.53250210  0.18215913  0.91633612    -0.70930
O2618       O  0.98182133  0.20515398  0.91118684    -0.49600
C2619       C  0.00670534  0.18780059  0.89994920     0.75330
O2620       O  0.58726768  0.30734950  0.97822224    -0.66260
O2621       O  0.59678834  0.28811174  0.53247735    -0.53460
C2622       C  0.60425350  0.30375193  0.50399816     0.73710
Zr2623     Zr  0.53590825  0.29266298  0.95803042     2.77540
O2624       O  0.57610397  0.28872728  0.91174860    -0.97010
O2625       O  0.52267923  0.35047368  0.95172043    -0.77830
Zr2626     Zr  0.54281847  0.19884787  0.97174277     2.70070
O2627       O  0.58580186  0.21490428  0.93102085    -0.79080
O2628       O  0.51782210  0.14685811  0.97311860    -0.98160
Zr2629     Zr  0.55007456  0.25194214  0.54918488     2.21500
Zr2630     Zr  0.96003417  0.24147905  0.95532589     2.11130
O2631       O  0.51711238  0.24346806  0.94359851    -2.46850
O2632       O  0.56171782  0.24823992  0.98748917    -0.78870
O2633       O  0.97941171  0.29163142  0.97274909    -0.71060
O2634       O  0.52855788  0.20376693  0.53148124    -2.32020
O2635       O  0.52580599  0.29612860  0.51600478    -2.28230
O2636       O  0.98650763  0.19792189  0.98598548    -0.72820
H2637       H  0.92617232  0.24975408  0.52058829     0.79170
H2638       H  0.53950748  0.18610357  0.54354755     0.80260
H2639       H  0.52305808  0.24247210  0.92045937     0.82490
H2640       H  0.53459936  0.31620619  0.52145036     0.80090
H2641       H  0.00537993  0.14759711  0.56892590     0.43130
H2642       H  0.50611382  0.14297874  0.99496377     0.42100
H2643       H  0.59848145  0.23087528  0.94096864     0.41780
H2644       H  0.57127357  0.26874479  0.90150649     0.39710
H2645       H  0.49887923  0.35199789  0.95498203     0.42840
H2646       H  0.99928690  0.36059504  0.50771523     0.37630
H2647       H  0.92679402  0.28184786  0.58198091     0.43740
H2648       H  0.91024188  0.21859244  0.58091069     0.40160
H2649       H  0.57031360  0.30654450  0.89517713     0.45080
H2650       H  0.96246591  0.36747837  0.50083106     0.43800
H2651       H  0.92919473  0.19433767  0.60545549     0.43940
H2652       H  0.50076169  0.15012197  0.95757874     0.44290
C2653       C  0.68543367  0.13436785  0.51870589     0.03850
C2654       C  0.65334945  0.14433221  0.53134706    -0.12300
C2655       C  0.63938546  0.17578236  0.51958601     0.01350
C2656       C  0.65593304  0.19313606  0.49262893    -0.10830
C2657       C  0.67893471  0.17602952  0.47389348     0.03840
C2658       C  0.69985102  0.15581680  0.49331415    -0.10250
H2659       H  0.63925139  0.12773687  0.54822566     0.09430
H2660       H  0.64395959  0.21420338  0.48032668     0.06960
H2661       H  0.72302096  0.14851902  0.48188238     0.06810
C2662       C  0.68193872  0.35720854  0.49280183     0.03850
C2663       C  0.69232453  0.34498720  0.46237618    -0.12300
C2664       C  0.66660911  0.34041264  0.94014510     0.01350
C2665       C  0.64973979  0.31151395  0.46212989    -0.10830
C2666       C  0.63744125  0.31759869  0.49450338     0.03840
C2667       C  0.65322040  0.34275891  0.50971975    -0.10250
H2668       H  0.71316544  0.35799218  0.94264943     0.09430
H2669       H  0.63796439  0.29820442  0.94445584     0.06960
H2670       H  0.64245602  0.35220394  0.53202272     0.06810
C2671       C  0.82706493  0.13051597  0.50314247     0.03850
C2672       C  0.81022223  0.14770124  0.52781084    -0.12300
C2673       C  0.83144934  0.16212594  0.04691476     0.01350
C2674       C  0.85216649  0.18278984  0.53250846    -0.10830
C2675       C  0.87114431  0.17137169  0.50557005     0.03840
C2676       C  0.85881070  0.14313697  0.49128113    -0.10250
H2677       H  0.78947880  0.13958889  0.03516531     0.09430
H2678       H  0.86169708  0.20146441  0.54593503     0.06960
H2679       H  0.87386554  0.13056748  0.47336916     0.06810
C2680       C  0.86769650  0.31144713  0.98152512     0.03850
C2681       C  0.85486811  0.30342540  0.01416302    -0.12300
C2682       C  0.84076699  0.32942221  0.03048331     0.01350
C2683       C  0.81528032  0.34355813  0.01311803    -0.10830
C2684       C  0.82338470  0.35630634  0.98033458     0.03840
C2685       C  0.85203179  0.34030072  0.96423941    -0.10250
H2686       H  0.86647424  0.28396124  0.02916886     0.09430
H2687       H  0.79577150  0.35517223  0.02735949     0.06870
H2688       H  0.86300430  0.35118392  0.94121154     0.06810
C2689       C  0.89756264  0.34672403  0.03250131     0.24310
C2690       C  0.86496880  0.35397922  0.03893670    -0.23800
C2691       C  0.85708975  0.38704440  0.03398609     0.19220
C2692       C  0.87522626  0.40697914  0.01014772     0.24250
C2693       C  0.90621694  0.39737615  0.99954877    -0.23740
C2694       C  0.91605559  0.36578532  0.00818711     0.19160
F2695       F  0.95835612  0.36829553  0.43809238    -0.13700
F2696       F  0.92319522  0.33138862  0.40461625    -0.16060
F2697       F  0.86261302  0.43449173  0.99480701    -0.16060
F2698       F  0.83038237  0.39858623  0.05011622    -0.13700
C2699       C  0.85727471  0.08655931  0.06596320     0.24310
C2700       C  0.88885779  0.09777557  0.05858470    -0.23800
C2701       C  0.89609493  0.12631454  0.57131100     0.19220
C2702       C  0.87117120  0.14473546  0.58651818     0.24250
C2703       C  0.84043523  0.14118716  0.07780873    -0.23740
C2704       C  0.83330953  0.10777884  0.07908584     0.19160
F2705       F  0.80230287  0.09831099  0.08409952    -0.13700
F2706       F  0.84927926  0.05682814  0.05815856    -0.16060
F2707       F  0.87748489  0.17229731  0.60024644    -0.16060
F2708       F  0.92642100  0.13639930  0.57091713    -0.13700
C2709       C  0.66088371  0.39661971  0.42742919     0.24310
C2710       C  0.64839818  0.36497355  0.42892279    -0.23800
C2711       C  0.61197311  0.36693913  0.93562594     0.19220
C2712       C  0.59642996  0.38574046  0.95900521     0.24250
C2713       C  0.61406297  0.41372549  0.46208406    -0.23740
C2714       C  0.64416758  0.42061184  0.44526626     0.19160
F2715       F  0.65846710  0.44891243  0.44869398    -0.13700
F2716       F  0.69113388  0.40209727  0.41384342    -0.16060
F2717       F  0.56859951  0.37510920  0.97475041    -0.16060
F2718       F  0.59657194  0.34235055  0.92486077    -0.13700
C2719       C  0.64570491  0.10796351  0.45863870     0.24310
C2720       C  0.61382215  0.11947156  0.45962373    -0.23800
C2721       C  0.59558417  0.13533854  0.94999928     0.19220
C2722       C  0.62138692  0.15463553  0.93464071     0.24250
C2723       C  0.66578508  0.16109374  0.44487652    -0.23740
C2724       C  0.67101074  0.12774010  0.44517658     0.19160
F2725       F  0.70173470  0.11658892  0.44336634    -0.13700
F2726       F  0.65159684  0.07707793  0.46927664    -0.16060
F2727       F  0.61767980  0.17158813  0.90507641    -0.16060
F2728       F  0.56750214  0.13518564  0.93559249    -0.13700
C2729       C  0.88195977  0.06087515  0.89784224     0.24310
C2730       C  0.89822725  0.53314475  0.90999186    -0.23800
C2731       C  0.89465947  0.50523829  0.89521911     0.19220
C2732       C  0.87281732  0.50461204  0.87263449     0.24250
C2733       C  0.85721929  0.53393773  0.85873234    -0.23740
C2734       C  0.86485079  0.06175644  0.86922562     0.19160
F2735       F  0.84998648  0.09003655  0.85790639    -0.13700
F2736       F  0.88269707  0.08775843  0.91474624    -0.16060
F2737       F  0.86770676  0.47355240  0.86767427    -0.16060
F2738       F  0.91040690  0.47676226  0.90540256    -0.13700
C2739       C  0.92825279  0.16974133  0.88733169     0.24310
C2740       C  0.43095733  0.15907475  0.85529242    -0.23800
C2741       C  0.42411689  0.12628942  0.85487137     0.19220
C2742       C  0.44014027  0.10425911  0.87695389     0.24250
C2743       C  0.45159306  0.11563472  0.90567711    -0.23740
C2744       C  0.94049625  0.14820663  0.91272523     0.19160
F2745       F  0.94388184  0.15852056  0.94265005    -0.13700
F2746       F  0.92076101  0.20130521  0.89265820    -0.16060
F2747       F  0.44416593  0.07274339  0.87032624    -0.16060
F2748       F  0.41124622  0.11655960  0.82812115    -0.13700
C2749       C  0.63269576  0.56534437  0.90006158     0.24310
C2750       C  0.60201280  0.05723894  0.89370644    -0.23800
C2751       C  0.59258792  0.06550545  0.86131219     0.19220
C2752       C  0.61614658  0.07370865  0.83559684     0.24250
C2753       C  0.64912773  0.06977814  0.84186743    -0.23740
C2754       C  0.65456043  0.57632143  0.87410282     0.19160
F2755       F  0.68441914  0.58504706  0.87995341    -0.13700
F2756       F  0.64327424  0.55893653  0.93003796    -0.16060
F2757       F  0.60736056  0.08033874  0.80429510    -0.16060
F2758       F  0.56148336  0.06360608  0.85410067    -0.13700
C2759       C  0.56314642  0.37669284  0.86559527     0.24310
C2760       C  0.03491012  0.36002319  0.86126946    -0.23800
C2761       C  0.00576370  0.37007041  0.87934671     0.19220
C2762       C  0.00411101  0.39686265  0.89669859     0.24250
C2763       C  0.03126744  0.41367876  0.90018192    -0.23740
C2764       C  0.56121507  0.40364626  0.88491764     0.19160
F2765       F  0.58802630  0.42042078  0.88857111    -0.13700
F2766       F  0.59202887  0.36773975  0.85082112    -0.16060
F2767       F  0.97530316  0.40546524  0.91231679    -0.16060
F2768       F  0.97737679  0.35537154  0.88259283    -0.13700
C2769       C  0.59281634  0.44017252  0.62518665     0.24310
C2770       C  0.60248728  0.96719204  0.59911102    -0.23800
C2771       C  0.63530676  0.97135157  0.59475222     0.19220
C2772       C  0.65518444  0.94630730  0.60822947     0.24250
C2773       C  0.64695621  0.93699343  0.64132074    -0.23740
C2774       C  0.61441121  0.42692117  0.64880525     0.19160
F2775       F  0.60555904  0.40185316  0.67094186    -0.13700
F2776       F  0.56404622  0.42613022  0.62368552    -0.16060
F2777       F  0.65869926  0.92052689  0.58973523    -0.16060
F2778       F  0.64692995  0.99747096  0.57567484    -0.13700
C2779       C  0.45730881  0.41273873  0.63246060     0.24310
C2780       C  0.46835682  0.40388302  0.60064237    -0.23800
C2781       C  0.94318008  0.37122180  0.58235326     0.19220
C2782       C  0.92407108  0.35395608  0.60822350     0.24250
C2783       C  0.43028657  0.36204657  0.64388497    -0.23740
C2784       C  0.43372095  0.39430642  0.65145178     0.19160
F2785       F  0.42107388  0.40407008  0.68065805    -0.13700
F2786       F  0.46851013  0.43871138  0.64540229    -0.16060
F2787       F  0.89714470  0.33877271  0.60185575    -0.16060
F2788       F  0.93616343  0.36926803  0.55090135    -0.13700
C2789       C  0.90518800  0.94547507  0.65045514     0.24310
C2790       C  0.89903464  0.95097829  0.61709978    -0.23800
C2791       C  0.89929583  0.44115437  0.58638256     0.19220
C2792       C  0.88232911  0.44348243  0.61677117     0.24250
C2793       C  0.85075177  0.92986983  0.66401837    -0.23740
C2794       C  0.88248853  0.92924881  0.67313486     0.19160
F2795       F  0.88757756  0.92430321  0.70566056    -0.13700
F2796       F  0.93159598  0.95790524  0.66106374    -0.16060
F2797       F  0.85319124  0.42986951  0.62399562    -0.16060
F2798       F  0.88775663  0.42449765  0.56285794    -0.13700
C2799       C  0.93553492  0.13023691  0.64986547     0.24310
C2800       C  0.46743317  0.13722545  0.65500965    -0.23800
C2801       C  0.49745377  0.12524480  0.63990279     0.19220
C2802       C  0.49881308  0.11090321  0.61169590     0.24250
C2803       C  0.47116597  0.10041147  0.60072001    -0.23740
C2804       C  0.93571404  0.10228822  0.63202266     0.19160
F2805       F  0.90798937  0.08664354  0.62930534    -0.13700
F2806       F  0.90769429  0.14081085  0.66549707    -0.16060
F2807       F  0.52850194  0.10238858  0.59759713    -0.16060
F2808       F  0.52652438  0.12151468  0.65218789    -0.13700
O2809       O  0.97695186  0.58448879  0.06587166    -0.85770
O2810       O  0.99482603  0.90721913  0.05515519    -0.85940
O2811       O  0.94947693  0.97551572  0.10264622    -0.87610
O2812       O  0.54992430  0.49026288  0.09903221    -0.86360
O2813       O  0.58864257  0.49027163  0.05654906    -0.85950
O2814       O  0.91141952  0.97800918  0.06481429    -0.87320
O2815       O  0.99297451  0.94084073  0.09643846    -0.85800
O2816       O  0.96390815  0.53829331  0.09786568    -0.85390
Zr2817     Zr  0.99797768  0.49603819  0.07430901     2.84310
O2818       O  0.53717612  0.97155387  0.03821583    -1.07370
O2819       O  0.96693702  0.53113614  0.04236004    -1.08090
C2820       C  0.96506323  0.56913448  0.09254355     1.07340
C2821       C  0.98736957  0.91352324  0.08535815     1.07280
C2822       C  0.92132706  0.96930775  0.09382051     1.10260
C2823       C  0.57856527  0.48350789  0.08700116     1.08040
H2824       H  0.95839201  0.95057144  0.04759830     0.33600
O2825       O  0.97210041  0.96753638  0.03793918    -1.28320
H2826       H  0.53953513  0.55070589  0.05800901     0.33270
O2827       O  0.52855622  0.53832873  0.04338995    -1.30000
O2828       O  0.53204932  0.92634769  0.44660894    -0.85770
O2829       O  0.48611467  0.60926497  0.44397167    -0.87260
O2830       O  0.91998957  0.95282543  0.49354744    -0.85840
O2831       O  0.59846369  0.96666359  0.98645425    -0.85890
O2832       O  0.58600980  0.56489224  0.01200491    -0.85610
O2833       O  0.91527629  0.55345486  0.51670264    -0.85410
O2834       O  0.95212684  0.02595784  0.42071483    -0.85780
O2835       O  0.56134275  0.54126820  0.40067716    -0.85240
O2836       O  0.91224314  0.02263836  0.46214943    -0.86310
O2837       O  0.59959750  0.53778745  0.43866818    -0.85470
O2838       O  0.96145544  0.91520402  0.99274205    -0.85860
O2839       O  0.94934073  0.59576621  0.51898723    -0.85590
O2840       O  0.55910967  0.60242629  0.47325058    -0.85240
O2841       O  0.56671775  0.92425333  0.00552624    -0.85640
O2842       O  0.52276906  0.96899806  0.40831018    -0.85940
O2843       O  0.49235888  0.57433818  0.40315806    -0.87280
Zr2844     Zr  0.50977609  0.94167929  0.00435704     2.83100
Zr2845     Zr  0.00294149  0.57641707  0.49723166     2.83500
Zr2846     Zr  0.93757657  0.00265296  0.51063812     2.84090
Zr2847     Zr  0.56550029  0.51265309  0.00593051     2.83360
Zr2848     Zr  0.50988329  0.02353535  0.42826520     2.84220
O2849       O  0.54264470  0.55244414  0.46097662    -1.07850
O2850       O  0.97438291  0.97690710  0.47344037    -1.07350
C2851       C  0.53215144  0.93919638  0.41720098     1.07310
C2852       C  0.48059767  0.60075349  0.41494010     1.09930
C2853       C  0.93147047  0.92353669  0.49244122     1.07480
C2854       C  0.59140880  0.93628179  0.98806274     1.07840
C2855       C  0.57615611  0.59137890  0.99648011     1.07420
C2856       C  0.92210227  0.58136352  0.52637279     1.06980
C2857       C  0.92278695  0.02913968  0.43220278     1.07400
C2858       C  0.59003062  0.54573052  0.40917422     1.06910
H2859       H  0.96033510  0.56157350  0.45921268     0.33590
O2860       O  0.97585649  0.54560596  0.46583117    -1.28950
H2861       H  0.55782432  0.98126574  0.44681736     0.33620
O2862       O  0.54206839  0.99055283  0.46193897    -1.30330
C2863       C  0.51929742  0.64796867  0.19580100     0.03850
C2864       C  0.48636337  0.65623475  0.20189276    -0.12300
C2865       C  0.47112088  0.67064442  0.17491078     0.01350
C2866       C  0.48574410  0.69911570  0.16167527    -0.10830
C2867       C  0.51905787  0.69659357  0.15256830     0.03840
C2868       C  0.53700953  0.67047173  0.17153525    -0.10250
H2869       H  0.47177507  0.64016908  0.21901620     0.09430
H2870       H  0.47071131  0.71638441  0.14750220     0.06960
H2871       H  0.56111585  0.66341596  0.16240301     0.06810
O2872       O  0.00126818  0.59237577  0.19588293    -0.74580
O2873       O  0.54818847  0.59910355  0.22141225    -0.53480
C2874       C  0.52515480  0.61089332  0.20360755     0.79150
O2875       O  0.91207539  0.49868976  0.30569399    -0.59180
O2876       O  0.90286258  0.95433864  0.27621388    -0.52210
C2877       C  0.89247418  0.97741558  0.29421478     0.71170
O2878       O  0.98778732  0.57925230  0.31063894    -0.73740
O2879       O  0.54036553  0.58963992  0.29059253    -0.54300
C2880       C  0.51422067  0.59752579  0.30837033     0.77170
O2881       O  0.92216475  0.52636955  0.18248479    -0.58880
O2882       O  0.91201100  0.97870702  0.21266961    -0.52000
C2883       C  0.90338426  0.00368017  0.19197922     0.73760
Zr2884     Zr  0.97595031  0.53767581  0.20244512     2.54710
O2885       O  0.93246774  0.57844142  0.20138917    -0.79440
O2886       O  0.99977115  0.52031078  0.15156748    -0.92860
Zr2887     Zr  0.96646786  0.52566749  0.29754434     2.64680
O2888       O  0.92297463  0.56632645  0.29570406    -0.97820
O2889       O  0.96844892  0.51607781  0.35550060    -0.79880
O2890       O  0.99430817  0.55330812  0.25162966    -0.83240
O2891       O  0.95000870  0.50889147  0.24856505    -2.17940
O2892       O  0.53146585  0.91159852  0.18733775    -0.66630
O2893       O  0.98168891  0.90382081  0.21453347    -0.51190
C2894       C  0.00755812  0.89323847  0.19704975     0.72140
O2895       O  0.58687003  0.97210695  0.31339256    -0.59530
O2896       O  0.59471149  0.52332966  0.29095271    -0.51510
C2897       C  0.60391363  0.49789431  0.31013703     0.73950
O2898       O  0.50374347  0.90761299  0.30976709    -0.70930
O2899       O  0.96122758  0.89822985  0.28100516    -0.49600
C2900       C  0.98107056  0.88868544  0.30332828     0.75330
O2901       O  0.58722764  0.99914310  0.17670153    -0.66260
O2902       O  0.60197114  0.53368244  0.21554923    -0.53460
C2903       C  0.60876790  0.51611974  0.19066804     0.73710
Zr2904     Zr  0.54078977  0.96834052  0.20093483     2.77540
O2905       O  0.58390636  0.93010500  0.21761587    -0.97010
O2906       O  0.52827363  0.95792810  0.14686987    -0.77830
Zr2907     Zr  0.53343376  0.95886367  0.29516055     2.70070
O2908       O  0.57087571  0.91219052  0.30031862    -0.79080
O2909       O  0.52084627  0.97348521  0.34803547    -0.98160
Zr2910     Zr  0.55210794  0.54402747  0.25254507     2.21500
Zr2911     Zr  0.95742269  0.95164937  0.24717460     2.11130
O2912       O  0.51422168  0.94227005  0.24756098    -2.46850
O2913       O  0.55999497  0.98670468  0.24883047    -0.78870
O2914       O  0.98516129  0.98069344  0.20152046    -0.71060
O2915       O  0.52407295  0.51567382  0.29887991    -2.32020
O2916       O  0.53286968  0.52660768  0.20272269    -2.28230
O2917       O  0.97512508  0.96812576  0.29844647    -0.72820
H2918       H  0.92753647  0.51539029  0.24830048     0.79170
H2919       H  0.53211138  0.52348593  0.31827167     0.80260
H2920       H  0.51990887  0.91932727  0.24862385     0.82490
H2921       H  0.54372643  0.53873683  0.18403251     0.80090
H2922       H  0.98788371  0.52802257  0.35949830     0.43130
H2923       H  0.50560392  0.95628222  0.35625019     0.42100
H2924       H  0.59211088  0.91903456  0.29005491     0.41780
H2925       H  0.59285088  0.93884110  0.23666758     0.39710
H2926       H  0.50563912  0.96468665  0.14498855     0.42840
H2927       H  0.00607101  0.53954945  0.13703749     0.37630
H2928       H  0.93437639  0.58997735  0.22140892     0.43740
H2929       H  0.91132665  0.56268013  0.27612988     0.40160
H2930       H  0.57361379  0.90978049  0.22723183     0.45080
H2931       H  0.98109203  0.51086977  0.14283783     0.43800
H2932       H  0.90796256  0.55968740  0.31476511     0.43940
H2933       H  0.54235879  0.96789543  0.35595417     0.44290
C2934       C  0.86880778  0.50159289  0.17699642     0.03850
C2935       C  0.84707091  0.47988231  0.19485543    -0.12300
C2936       C  0.83105405  0.45903836  0.17623495     0.01350
C2937       C  0.81408979  0.47587311  0.15133929    -0.10830
C2938       C  0.82957758  0.50108774  0.13123869     0.03840
C2939       C  0.85920599  0.51299682  0.14360885    -0.10250
H2940       H  0.85231887  0.47052553  0.21959991     0.09430
H2941       H  0.79493713  0.46322780  0.14156506     0.06960
H2942       H  0.87498019  0.52851322  0.12733044     0.06810
C2943       C  0.50665426  0.85855793  0.18111256     0.03850
C2944       C  0.48231814  0.83757395  0.19543240    -0.12300
C2945       C  0.46444490  0.82238128  0.17317165     0.01350
C2946       C  0.48398827  0.80421583  0.15199262    -0.10830
C2947       C  0.51072196  0.81961693  0.13487522     0.03840
C2948       C  0.52161968  0.84877508  0.14923493    -0.10250
H2949       H  0.46982420  0.84336597  0.21850081     0.09430
H2950       H  0.47275678  0.78481586  0.14107709     0.06960
H2951       H  0.53875546  0.86449172  0.13503458     0.06810
C2952       C  0.64306913  0.50687184  0.18050208     0.03850
C2953       C  0.65007795  0.47376208  0.18999108    -0.12300
C2954       C  0.66958909  0.45590545  0.16864777     0.01350
C2955       C  0.69683926  0.47265559  0.15506746    -0.10830
C2956       C  0.69153632  0.50494534  0.14107063     0.03840
C2957       C  0.66326532  0.52238909  0.15384530    -0.10250
H2958       H  0.63359970  0.46042765  0.20719363     0.09430
H2959       H  0.71621797  0.45804497  0.14395190     0.06960
H2960       H  0.65559548  0.54542992  0.14148726     0.06810
C2961       C  0.98938287  0.85255457  0.31172038     0.03850
C2962       C  0.02316465  0.84793441  0.30854209    -0.12300
C2963       C  0.03698068  0.83472724  0.33669912     0.01350
C2964       C  0.02474474  0.80409348  0.34563691    -0.10830
C2965       C  0.99119567  0.80304487  0.35308984     0.03840
C2966       C  0.97217087  0.82818595  0.33422550    -0.10250
H2967       H  0.03749047  0.86503477  0.29239760     0.09430
H2968       H  0.04055587  0.78616557  0.35778723     0.06960
H2969       H  0.94705020  0.83271959  0.34186009     0.06810
C2970       C  0.63737892  0.49934069  0.32420403     0.03850
C2971       C  0.65809482  0.52139506  0.30579467    -0.12300
C2972       C  0.67652715  0.54016360  0.32347803     0.01350
C2973       C  0.69385992  0.52181557  0.34776049    -0.10830
C2974       C  0.67937950  0.49514949  0.36694646     0.03840
C2975       C  0.64862601  0.48534313  0.35587490    -0.10250
H2976       H  0.65155660  0.53207961  0.28188248     0.09430
H2977       H  0.71412566  0.53300738  0.35698452     0.06960
H2978       H  0.63350021  0.46894989  0.37186182     0.06810
C2979       C  0.50927071  0.63170821  0.32252553     0.03850
C2980       C  0.48443754  0.65144931  0.30819733    -0.12300
C2981       C  0.46728212  0.67475267  0.32691718     0.01350
C2982       C  0.48705141  0.69224475  0.34453296    -0.10830
C2983       C  0.50712700  0.67353922  0.36569430     0.03840
C2984       C  0.51969399  0.64244869  0.35354891    -0.10250
H2985       H  0.47259427  0.64234286  0.28819404     0.09430
H2986       H  0.47756050  0.71576545  0.35137659     0.06960
H2987       H  0.53474782  0.62627133  0.36869756     0.06810
C2988       C  0.85619947  0.98531690  0.30183599     0.03850
C2989       C  0.85143584  0.01945864  0.29854869    -0.12300
C2990       C  0.83933703  0.03348911  0.32670331     0.01350
C2991       C  0.80994466  0.02084150  0.33796583    -0.10830
C2992       C  0.81108224  0.98711870  0.34702903     0.03840
C2993       C  0.83324873  0.96785859  0.32602388    -0.10250
H2994       H  0.86749279  0.03416161  0.28168189     0.09430
H2995       H  0.79384993  0.03658275  0.35209202     0.06960
H2996       H  0.83814591  0.94240519  0.33374148     0.06810
O2997       O  0.70296157  0.98730660  0.08682753    -0.74580
O2998       O  0.72315977  0.53592531  0.09608545    -0.53480
C2999       C  0.70670110  0.51060272  0.10635849     0.79150
O3000       O  0.81036269  0.91021756  0.99542688    -0.59180
O3001       O  0.78905433  0.89909423  0.44953571    -0.52210
C3002       C  0.80841233  0.89118349  0.47254466     0.71170
O3003       O  0.82260153  0.98053024  0.07829295    -0.73740
O3004       O  0.79554388  0.52872779  0.08891710    -0.54300
C3005       C  0.81663973  0.50531001  0.09632935     0.77170
O3006       O  0.69246296  0.90612876  0.02051945    -0.58880
O3007       O  0.71686034  0.90355867  0.46983631    -0.52000
C3008       C  0.69881733  0.89064018  0.49477060     0.73760
Zr3009     Zr  0.71024880  0.95962863  0.03561911     2.54710
O3010       O  0.71660915  0.91344916  0.07681672    -0.79440
O3011       O  0.65343030  0.96305412  0.02465018    -0.92860
Zr3012     Zr  0.80265814  0.95984587  0.02746926     2.64680
O3013       O  0.77857376  0.92529215  0.07382501    -0.97820
O3014       O  0.85929956  0.96655980  0.03542363    -0.79880
O3015       O  0.75665274  0.98289782  0.05375550    -0.83240
O3016       O  0.75647311  0.93757657  0.00816468    -2.17940
O3017       O  0.68699968  0.51067893  0.42118829    -0.66630
O3018       O  0.71425718  0.96465779  0.40352807    -0.51190
C3019       C  0.69272245  0.98821757  0.39756048     0.72140
O3020       O  0.82141224  0.57632237  0.47718198    -0.59530
O3021       O  0.79422282  0.58579772  0.02249349    -0.51510
C3022       C  0.81419679  0.59676865  0.99819646     0.73950
O3023       O  0.80974422  0.49779878  0.40758997    -0.70930
O3024       O  0.78354605  0.95616869  0.39510985    -0.49600
C3025       C  0.80090071  0.98066043  0.38388969     0.75330
O3026       O  0.69722453  0.58072985  0.50093297    -0.66260
O3027       O  0.72348080  0.59309507  0.04178823    -0.53460
C3028       C  0.70478568  0.60181486  0.01847146     0.73710
Zr3029     Zr  0.70690217  0.52916550  0.47239976     2.77540
O3030       O  0.72023547  0.56587022  0.42364027    -0.97010
O3031       O  0.65008400  0.51824836  0.48502987    -0.77830
Zr3032     Zr  0.80193559  0.52333190  0.46219122     2.70070
O3033       O  0.80870864  0.56490495  0.41625275    -0.79080
O3034       O  0.85738808  0.50674999  0.46772376    -0.98160
Zr3035     Zr  0.75676566  0.54136503  0.04364314     2.21500
Zr3036     Zr  0.75273077  0.94924248  0.44937630     2.11130
O3037       O  0.75289682  0.50555339  0.44555879    -2.46850
O3038       O  0.75548215  0.54820695  0.48942569    -0.78870
O3039       O  0.70741937  0.97203314  0.47944285    -0.71060
O3040       O  0.80126454  0.51805926  0.01351677    -2.32020
O3041       O  0.70867518  0.51742475  0.02636945    -2.28230
O3042       O  0.80073876  0.97259414  0.46759169    -0.72820
H3043       H  0.75609098  0.91436168  0.01427834     0.79170
H3044       H  0.82052429  0.52725130  0.02006644     0.80260
H3045       H  0.75252361  0.51049304  0.42210596     0.82490
H3046       H  0.68967306  0.52666498  0.03754769     0.80090
H3047       H  0.86379465  0.98997247  0.03031410     0.43130
H3048       H  0.86651788  0.51090247  0.44482830     0.42100
H3049       H  0.79582139  0.58430866  0.42268247     0.41780
H3050       H  0.74131031  0.57448365  0.42783928     0.39710
H3051       H  0.64429363  0.50769650  0.46562523     0.42840
H3052       H  0.64555175  0.98501329  0.02973338     0.37630
H3053       H  0.72051916  0.92311313  0.09748357     0.43740
H3054       H  0.78254120  0.90177966  0.07125788     0.40160
H3055       H  0.72552853  0.55287300  0.40472916     0.45080
H3056       H  0.64142557  0.94749861  0.04036291     0.43800
H3057       H  0.78897809  0.93027205  0.09363057     0.43940
H3058       H  0.86566967  0.52388897  0.48014055     0.44290
O3059       O  0.99142794  0.81247448  0.08257224    -0.74580
O3060       O  0.54189643  0.79019365  0.09118739    -0.53480
C3061       C  0.51652117  0.80822492  0.09959602     0.79150
O3062       O  0.92579683  0.68091252  0.02335793    -0.59180
O3063       O  0.91262580  0.70127344  0.47158017    -0.52210
C3064       C  0.90530318  0.68303844  0.49866088     0.71170
O3065       O  0.00120229  0.70049934  0.09782995    -0.73740
O3066       O  0.54973089  0.72313001  0.10282365    -0.54300
C3067       C  0.52482553  0.70735828  0.11541696     0.77170
O3068       O  0.92177068  0.79954865  0.99847792    -0.58880
O3069       O  0.90884670  0.77572016  0.45331178    -0.52000
C3070       C  0.90150403  0.79582046  0.47536283     0.73760
Zr3071     Zr  0.97149253  0.79420573  0.03107520     2.54710
O3072       O  0.93488891  0.77780319  0.07891220    -0.79440
O3073       O  0.98750824  0.85098539  0.02310566    -0.92860
Zr3074     Zr  0.97667987  0.70078923  0.04395880     2.64680
O3075       O  0.93651247  0.70701178  0.08918079    -0.97820
O3076       O  0.98905563  0.64334610  0.05364442    -0.79880
O3077       O  0.99773081  0.74947631  0.05801709    -0.83240
O3078       O  0.95124759  0.74534173  0.01466658    -2.17940
O3079       O  0.50796956  0.79731386  0.40607778    -0.66630
O3080       O  0.96205052  0.77050057  0.40018152    -0.51190
C3081       C  0.98519945  0.78955085  0.38930275     0.72140
O3082       O  0.58766261  0.67722105  0.50368261    -0.59530
O3083       O  0.60251695  0.71305365  0.03845438    -0.51510
C3084       C  0.60910242  0.68844832  0.02085658     0.73950
O3085       O  0.52878695  0.67744494  0.42057854    -0.70930
O3086       O  0.98150684  0.70517207  0.40998892    -0.49600
C3087       C  0.00525427  0.68501575  0.40124909     0.75330
O3088       O  0.58604352  0.80646225  0.47928593    -0.66260
O3089       O  0.60070619  0.78828803  0.02922502    -0.53460
C3090       C  0.60675061  0.80513881  0.00117374     0.73710
Zr3091     Zr  0.53524588  0.79119383  0.45822702     2.77540
O3092       O  0.57586715  0.78532499  0.41257728    -0.97010
O3093       O  0.52627995  0.84918946  0.44606038    -0.77830
Zr3094     Zr  0.53956689  0.69754263  0.47490785     2.70070
O3095       O  0.58165032  0.71587427  0.43445892    -0.79080
O3096       O  0.52063165  0.64306149  0.48832285    -0.98160
Zr3097     Zr  0.55484732  0.75127483  0.04627216     2.21500
Zr3098     Zr  0.95830991  0.73961236  0.45554614     2.11130
O3099       O  0.51559519  0.74186612  0.44437302    -2.46850
O3100       O  0.55861709  0.74709434  0.49073240    -0.78870
O3101       O  0.97884899  0.78951881  0.47294675    -0.71060
O3102       O  0.53358207  0.70132646  0.03021132    -2.32020
O3103       O  0.52792365  0.79504657  0.01587869    -2.28230
O3104       O  0.98286429  0.69520682  0.48729117    -0.72820
H3105       H  0.92848864  0.74422261  0.02122953     0.79170
H3106       H  0.54369508  0.68290049  0.04214463     0.80260
H3107       H  0.52250394  0.74061061  0.42148318     0.82490
H3108       H  0.53774069  0.81454372  0.02124122     0.80090
H3109       H  0.01168894  0.64135724  0.05966577     0.43130
H3110       H  0.52957141  0.63636159  0.50975394     0.42100
H3111       H  0.59615967  0.72835022  0.44654449     0.41780
H3112       H  0.56991005  0.76612536  0.40169619     0.39710
H3113       H  0.50272208  0.85158761  0.44413254     0.42840
H3114       H  0.00619178  0.85341380  0.03619199     0.37630
H3115       H  0.94864555  0.76743435  0.09590080     0.43740
H3116       H  0.91612764  0.71179335  0.07840929     0.40160
H3117       H  0.57122652  0.80369901  0.39614512     0.45080
H3118       H  0.97021643  0.86266624  0.03494646     0.43800
H3119       H  0.93462017  0.68499838  0.10076977     0.43940
H3120       H  0.49695221  0.64281924  0.49253282     0.44290
C3121       C  0.69000449  0.63649105  0.01230026     0.03850
C3122       C  0.66070696  0.64912253  0.02893410    -0.12300
C3123       C  0.64364773  0.67739598  0.01382074     0.01350
C3124       C  0.65485412  0.68942200  0.98185972    -0.10830
C3125       C  0.67293188  0.66810557  0.96304286     0.03840
C3126       C  0.69816066  0.65183893  0.98031175    -0.10250
H3127       H  0.65022008  0.63597615  0.05105348     0.09430
H3128       H  0.64088942  0.70837526  0.96871787     0.06960
H3129       H  0.71774387  0.64090400  0.96560481     0.06810
C3130       C  0.68356133  0.85995609  0.98777914     0.03850
C3131       C  0.69201784  0.84900965  0.95626296    -0.12300
C3132       C  0.66691649  0.83737695  0.44139555     0.01350
C3133       C  0.65012660  0.81484772  0.95757701    -0.10830
C3134       C  0.63944564  0.81967230  0.99071065     0.03840
C3135       C  0.65581779  0.84457662  0.00584489    -0.10250
H3136       H  0.71344980  0.85517211  0.44408161     0.09430
H3137       H  0.63721716  0.79583827  0.44700456     0.06960
H3138       H  0.64618864  0.85308090  0.02901566     0.06810
C3139       C  0.82933496  0.62979489  0.00252689     0.03850
C3140       C  0.81254921  0.64765775  0.02670898    -0.12300
C3141       C  0.83254644  0.65684546  0.55178583     0.01350
C3142       C  0.85532759  0.68199753  0.03127456    -0.10830
C3143       C  0.87380987  0.66994728  0.00437729     0.03840
C3144       C  0.86116038  0.64174119  0.99056573    -0.10250
H3145       H  0.78937309  0.63480556  0.54338975     0.09430
H3146       H  0.86554499  0.70040053  0.04454616     0.06960
H3147       H  0.87603248  0.62874573  0.97285029     0.06810
C3148       C  0.86737489  0.81142428  0.48135396     0.03850
C3149       C  0.85517463  0.80430170  0.51437418    -0.12300
C3150       C  0.84163552  0.83082230  0.53019400     0.01350
C3151       C  0.81584051  0.84453078  0.51304263    -0.10830
C3152       C  0.82340386  0.85645067  0.47987563     0.03840
C3153       C  0.85160219  0.83991343  0.46365802    -0.10250
H3154       H  0.86691125  0.78512451  0.52962629     0.09430
H3155       H  0.79659531  0.85649473  0.52731990     0.06870
H3156       H  0.86220672  0.85016993  0.44019759     0.06810
C3157       C  0.89872676  0.84810193  0.53030257     0.24310
C3158       C  0.86624235  0.85558763  0.53727710    -0.23800
C3159       C  0.85839503  0.88859565  0.53162328     0.19220
C3160       C  0.87614237  0.90795025  0.50698526     0.24250
C3161       C  0.90712798  0.89822375  0.49643856    -0.23740
C3162       C  0.91691854  0.86663769  0.50539740     0.19160
F3163       F  0.94337298  0.85447602  0.98809684    -0.13700
F3164       F  0.91278669  0.82438321  0.04834310    -0.16060
F3165       F  0.86334135  0.93522723  0.49130830    -0.16060
F3166       F  0.83208647  0.90062591  0.54801205    -0.13700
C3167       C  0.86674608  0.58240843  0.55753560     0.24310
C3168       C  0.89700614  0.59676247  0.54904330    -0.23800
C3169       C  0.89652760  0.62638439  0.07263966     0.19220
C3170       C  0.87172925  0.64549121  0.08733815     0.24250
C3171       C  0.84672507  0.63302570  0.57809929    -0.23740
C3172       C  0.84257514  0.59948937  0.57569647     0.19160
F3173       F  0.81335050  0.58635562  0.58380488    -0.13700
F3174       F  0.85988974  0.55351546  0.54680400    -0.16060
F3175       F  0.87817160  0.67279745  0.10147109    -0.16060
F3176       F  0.92735528  0.63570693  0.07221593    -0.13700
C3177       C  0.65620670  0.90152458  0.92792249     0.24310
C3178       C  0.64493095  0.86960610  0.92781877    -0.23800
C3179       C  0.61323008  0.86489852  0.43383117     0.19220
C3180       C  0.59778199  0.88573770  0.45534455     0.24250
C3181       C  0.61036005  0.91455380  0.96603341    -0.23740
C3182       C  0.63940386  0.92373232  0.94791636     0.19160
F3183       F  0.65262801  0.95263845  0.95123130    -0.13700
F3184       F  0.68559443  0.90882884  0.91323595    -0.16060
F3185       F  0.56938380  0.87681363  0.47120709    -0.16060
F3186       F  0.59738675  0.83967755  0.42489220    -0.13700
C3187       C  0.63332507  0.60150080  0.97870557     0.24310
C3188       C  0.60119067  0.61184619  0.97711593    -0.23800
C3189       C  0.61037134  0.64834347  0.44466997     0.19220
C3190       C  0.63689036  0.66955648  0.43735616     0.24250
C3191       C  0.65280608  0.64686639  0.94406186    -0.23740
C3192       C  0.65584205  0.61454031  0.95452358     0.19160
F3193       F  0.68266358  0.59895153  0.94474604    -0.13700
F3194       F  0.64218399  0.57866409  0.00238906    -0.16060
F3195       F  0.63558624  0.69565729  0.41477876    -0.16060
F3196       F  0.58217212  0.65476448  0.43115008    -0.13700
C3197       C  0.88252306  0.57072277  0.38718982     0.24310
C3198       C  0.89973770  0.03299697  0.40802101    -0.23800
C3199       C  0.89713536  0.00501836  0.39314900     0.19220
C3200       C  0.87869435  0.00470596  0.36751134     0.24250
C3201       C  0.86204076  0.03363974  0.35402987    -0.23740
C3202       C  0.85986665  0.56659928  0.36402704     0.19160
F3203       F  0.84048891  0.59205572  0.35347331    -0.13700
F3204       F  0.88272179  0.59892810  0.40204809    -0.16060
F3205       F  0.87849610  0.97415229  0.35878716    -0.16060
F3206       F  0.91267895  0.97669538  0.40421049    -0.13700
C3207       C  0.92936215  0.67307482  0.37970791     0.24310
C3208       C  0.43570403  0.66425941  0.34592227    -0.23800
C3209       C  0.42946101  0.63150404  0.34394424     0.19220
C3210       C  0.44548239  0.60930190  0.36588962     0.24250
C3211       C  0.45666448  0.62032456  0.39487627    -0.23740
C3212       C  0.94127326  0.65107416  0.40510470     0.19160
F3213       F  0.94219457  0.65988153  0.43611596    -0.13700
F3214       F  0.92059127  0.70417200  0.38577735    -0.16060
F3215       F  0.45038746  0.57825336  0.35852097    -0.16060
F3216       F  0.41920478  0.62229171  0.31562822    -0.13700
C3217       C  0.64261994  0.06980281  0.38663167     0.24310
C3218       C  0.61300053  0.56173697  0.38286804    -0.23800
C3219       C  0.60393270  0.57026422  0.35037987     0.19220
C3220       C  0.62798918  0.57824180  0.32502212     0.24250
C3221       C  0.66068127  0.57264939  0.33205589    -0.23740
C3222       C  0.66419886  0.08181024  0.36076937     0.19160
F3223       F  0.69359845  0.09219491  0.36650781    -0.13700
F3224       F  0.65382745  0.06231935  0.41601110    -0.16060
F3225       F  0.61991799  0.58398094  0.29337959    -0.16060
F3226       F  0.57290672  0.56879065  0.34280202    -0.13700
C3227       C  0.56709910  0.87544742  0.36203392     0.24310
C3228       C  0.03652149  0.85864099  0.36323249    -0.23800
C3229       C  0.00728530  0.86926116  0.38069594     0.19220
C3230       C  0.00525692  0.89730998  0.39610666     0.24250
C3231       C  0.03241480  0.91424634  0.39936757    -0.23740
C3232       C  0.56604846  0.90358738  0.37962836     0.19160
F3233       F  0.59349856  0.91954008  0.38272799    -0.13700
F3234       F  0.59556219  0.86513275  0.34740590    -0.16060
F3235       F  0.97628432  0.90651742  0.41096984    -0.16060
F3236       F  0.97949871  0.85351503  0.38584381    -0.13700
C3237       C  0.59593771  0.93830954  0.13119558     0.24310
C3238       C  0.60204058  0.46653602  0.10886840    -0.23800
C3239       C  0.63430074  0.47393469  0.10229837     0.19220
C3240       C  0.65668316  0.44947704  0.11166630     0.24250
C3241       C  0.65217329  0.43787604  0.14470440    -0.23740
C3242       C  0.62090263  0.92612625  0.15167538     0.19160
F3243       F  0.61640693  0.89960683  0.17347305    -0.13700
F3244       F  0.57008099  0.91977266  0.12912622    -0.16060
F3245       F  0.65891578  0.42525040  0.09119438    -0.16060
F3246       F  0.64312131  0.50148680  0.08359423    -0.13700
C3247       C  0.45983573  0.89654187  0.14122920     0.24310
C3248       C  0.46736230  0.88921277  0.10871055    -0.23800
C3249       C  0.94739835  0.86734019  0.09877136     0.19220
C3250       C  0.93425106  0.84309373  0.12249418     0.24250
C3251       C  0.43901375  0.84408746  0.15607118    -0.23740
C3252       C  0.43949152  0.87652839  0.16286992     0.19160
F3253       F  0.43180561  0.88374578  0.19414119    -0.13700
F3254       F  0.47367709  0.92170101  0.15228575    -0.16060
F3255       F  0.91095527  0.82354028  0.11477073    -0.16060
F3256       F  0.93186125  0.87615230  0.07167124    -0.13700
C3257       C  0.90510483  0.44354209  0.15209310     0.24310
C3258       C  0.89874036  0.44909285  0.11880649    -0.23800
C3259       C  0.87393956  0.93237057  0.10928443     0.19220
C3260       C  0.85001852  0.92097925  0.13341773     0.24250
C3261       C  0.85051110  0.42892449  0.16609363    -0.23740
C3262       C  0.88236678  0.42776300  0.17501983     0.19160
F3263       F  0.88779035  0.42302909  0.20748712    -0.13700
F3264       F  0.93164683  0.45581635  0.16246037    -0.16060
F3265       F  0.82587826  0.90241828  0.12583839    -0.16060
F3266       F  0.87447629  0.92362530  0.07857941    -0.13700
C3267       C  0.93556406  0.63037595  0.15129433     0.24310
C3268       C  0.46611369  0.64598270  0.15071123    -0.23800
C3269       C  0.49310237  0.63164309  0.13294136     0.19220
C3270       C  0.49245293  0.60151108  0.12311917     0.24250
C3271       C  0.46324701  0.58817207  0.11995679    -0.23740
C3272       C  0.93379717  0.60189466  0.13453787     0.19160
F3273       F  0.90514780  0.58749759  0.13309685    -0.13700
F3274       F  0.90884845  0.64233378  0.16781778    -0.16060
F3275       F  0.52048010  0.58895252  0.10883683    -0.16060
F3276       F  0.52141818  0.64482744  0.12277316    -0.13700
O3277       O  0.98785754  0.58471276  0.55424091    -0.85770
O3278       O  0.99472845  0.90707680  0.55530108    -0.85940
O3279       O  0.94896736  0.97699905  0.60201561    -0.87610
O3280       O  0.55310806  0.48723797  0.58654826    -0.86360
O3281       O  0.59523554  0.49515196  0.54836458    -0.85950
O3282       O  0.91146173  0.97905740  0.56362808    -0.87320
O3283       O  0.99058536  0.94166432  0.59589938    -0.85800
O3284       O  0.98578315  0.53809074  0.58892385    -0.85390
Zr3285     Zr  0.00297786  0.49642197  0.55494828     2.84310
O3286       O  0.54433194  0.97862354  0.52532142    -1.07370
O3287       O  0.97408969  0.53286009  0.52234398    -1.08090
C3288       C  0.98071252  0.56846863  0.58210995     1.07340
C3289       C  0.98622514  0.91383861  0.58518543     1.07280
C3290       C  0.92095174  0.97065794  0.59283988     1.10260
C3291       C  0.58282793  0.48405736  0.57727176     1.08040
H3292       H  0.95842832  0.95110210  0.54717800     0.33600
O3293       O  0.97246990  0.96782179  0.53762396    -1.28320
H3294       H  0.55019663  0.55937645  0.54586412     0.33270
O3295       O  0.53968130  0.54694600  0.53093295    -1.30000
O3296       O  0.52678522  0.92232154  0.95340843    -0.85770
O3297       O  0.47356781  0.60139916  0.95885460    -0.87260
O3298       O  0.91951864  0.95291610  0.99372838    -0.85840
O3299       O  0.60204900  0.96874199  0.47727253    -0.85890
O3300       O  0.59789702  0.57053408  0.49652877    -0.85610
O3301       O  0.90766060  0.54863307  0.03549907    -0.85410
O3302       O  0.95095399  0.02473198  0.92089205    -0.85780
O3303       O  0.55019285  0.53684138  0.91293379    -0.85240
O3304       O  0.91133895  0.02298052  0.96257237    -0.86310
O3305       O  0.58863070  0.53464396  0.95039659    -0.85470
O3306       O  0.96154916  0.91471215  0.49382321    -0.85860
O3307       O  0.93963986  0.59345804  0.02813110    -0.85590
O3308       O  0.54605729  0.59925880  0.99509962    -0.85240
O3309       O  0.56786059  0.92870798  0.49781482    -0.85640
O3310       O  0.51687595  0.96571665  0.91601014    -0.85940
O3311       O  0.48415354  0.56832820  0.91688984    -0.87280
Zr3312     Zr  0.51260595  0.94967438  0.49402493     2.83100
Zr3313     Zr  0.99353085  0.57297573  0.01088551     2.83500
Zr3314     Zr  0.93661080  0.00253419  0.01154679     2.84090
Zr3315     Zr  0.57542522  0.51771848  0.49467841     2.83360
Zr3316     Zr  0.50279838  0.01645706  0.94255066     2.84220
O3317       O  0.53071614  0.54709862  0.97531568    -1.07850
O3318       O  0.97345724  0.97709065  0.97411115    -1.07350
C3319       C  0.52665095  0.93594431  0.92417748     1.07310
C3320       C  0.47144483  0.59428100  0.92864051     1.09930
C3321       C  0.93129196  0.92385068  0.99161708     1.07480
C3322       C  0.59352817  0.93870879  0.48072513     1.07840
C3323       C  0.58897181  0.59621710  0.47877938     1.07420
C3324       C  0.91339578  0.57882536  0.03908434     1.06980
C3325       C  0.92170099  0.02840679  0.93245031     1.07400
C3326       C  0.57871792  0.54204965  0.92099464     1.06910
H3327       H  0.94985717  0.55516673  0.97339516     0.33590
O3328       O  0.96622218  0.54043965  0.98148221    -1.28950
H3329       H  0.55349530  0.97537803  0.95597847     0.33620
O3330       O  0.53774553  0.98311141  0.97210415    -1.30330
C3331       C  0.51282648  0.64902056  0.70444594     0.03850
C3332       C  0.47945361  0.65550817  0.70702115    -0.12300
C3333       C  0.46632108  0.66515813  0.67744746     0.01350
C3334       C  0.47882824  0.69428546  0.66352790    -0.10830
C3335       C  0.51234562  0.69378430  0.65582393     0.03840
C3336       C  0.53076377  0.67211243  0.67959929    -0.10250
H3337       H  0.46429568  0.64068733  0.72479547     0.09430
H3338       H  0.46317615  0.70952276  0.64807562     0.06960
H3339       H  0.55612689  0.66712435  0.67342107     0.06810
O3340       O  0.99482747  0.59282010  0.70592997    -0.74580
O3341       O  0.54343959  0.59871908  0.72809047    -0.53480
C3342       C  0.51856567  0.61131335  0.71355031     0.79150
O3343       O  0.90866366  0.49692285  0.81236984    -0.59180
O3344       O  0.90132447  0.95404933  0.77526569    -0.52210
C3345       C  0.89102086  0.97734977  0.79292306     0.71170
O3346       O  0.98429499  0.57558004  0.82113067    -0.73740
O3347       O  0.53387279  0.58676020  0.79586531    -0.54300
C3348       C  0.50812768  0.59397743  0.81454945     0.77170
O3349       O  0.90874747  0.52849562  0.70905525    -0.58880
O3350       O  0.91002334  0.97861047  0.71207763    -0.52000
C3351       C  0.90123701  0.00357142  0.69151785     0.73760
Zr3352     Zr  0.96756900  0.53920651  0.71187422     2.54710
O3353       O  0.92830363  0.58292255  0.70071813    -0.79440
O3354       O  0.98028235  0.52542531  0.65656711    -0.92860
Zr3355     Zr  0.96326515  0.52277218  0.80661090     2.64680
O3356       O  0.92283691  0.56613779  0.80414815    -0.97820
O3357       O  0.96364235  0.50881523  0.86490414    -0.79880
O3358       O  0.98857296  0.55293864  0.76051300    -0.83240
O3359       O  0.94437299  0.50869660  0.75774448    -2.17940
O3360       O  0.52164387  0.91518010  0.68390531    -0.66630
O3361       O  0.97997659  0.90371613  0.71424086    -0.51190
C3362       C  0.00581299  0.89302292  0.69679930     0.72140
O3363       O  0.58436488  0.96917408  0.81746495    -0.59530
O3364       O  0.58875563  0.52106169  0.79445437    -0.51510
C3365       C  0.59855297  0.49577598  0.81313162     0.73950
O3366       O  0.49943161  0.90570173  0.81402310    -0.70930
O3367       O  0.95974663  0.89863437  0.77989213    -0.49600
C3368       C  0.97924194  0.88940497  0.80258721     0.75330
O3369       O  0.58332938  0.99748022  0.68097165    -0.66260
O3370       O  0.59696095  0.53185572  0.71969280    -0.53460
C3371       C  0.60382497  0.51384746  0.69502465     0.73710
Zr3372     Zr  0.53542685  0.96847399  0.70330425     2.77540
O3373       O  0.57705263  0.92724100  0.71581856    -0.97010
O3374       O  0.53258807  0.98206541  0.64547958    -0.77830
Zr3375     Zr  0.53080353  0.95551483  0.79841707     2.70070
O3376       O  0.56980145  0.91004537  0.80122589    -0.79080
O3377       O  0.51667503  0.96993703  0.85231258    -0.98160
Zr3378     Zr  0.54655759  0.54211888  0.75707505     2.21500
Zr3379     Zr  0.95563793  0.95195348  0.74626074     2.11130
O3380       O  0.51004198  0.94017596  0.74982865    -2.46850
O3381       O  0.55602688  0.98478836  0.75176594    -0.78870
O3382       O  0.98299002  0.98095921  0.70039104    -0.71060
O3383       O  0.51934244  0.51281507  0.80352393    -2.32020
O3384       O  0.52620955  0.52465120  0.70846407    -2.28230
O3385       O  0.97297412  0.96891109  0.79748185    -0.72820
H3386       H  0.92201907  0.51504596  0.75958471     0.79170
H3387       H  0.52734945  0.52036383  0.82306158     0.80260
H3388       H  0.51515388  0.91718234  0.74918241     0.82490
H3389       H  0.53816025  0.53668822  0.69054770     0.80090
H3390       H  0.98289841  0.52001895  0.87066947     0.43130
H3391       H  0.50152303  0.95282774  0.86097060     0.42100
H3392       H  0.59028614  0.91787510  0.78992432     0.41780
H3393       H  0.58627371  0.93373334  0.73578622     0.39710
H3394       H  0.51899140  0.96479086  0.63924520     0.42840
H3395       H  0.99853893  0.53931123  0.64847902     0.37630
H3396       H  0.92441142  0.59299379  0.72185757     0.43740
H3397       H  0.91490287  0.56691968  0.78181684     0.40160
H3398       H  0.56595304  0.90676873  0.72343252     0.45080
H3399       H  0.96151373  0.53410486  0.64498699     0.43800
H3400       H  0.90475819  0.55805483  0.81921985     0.43940
H3401       H  0.53765064  0.96554771  0.86190087     0.44290
C3402       C  0.86767732  0.51009246  0.67797429     0.03850
C3403       C  0.88694299  0.52183421  0.65060823    -0.12300
C3404       C  0.88596505  0.50233920  0.62555034     0.01350
C3405       C  0.85807442  0.50806776  0.61073419    -0.10830
C3406       C  0.83017042  0.50312101  0.63127621     0.03840
C3407       C  0.83543643  0.50010994  0.66782146    -0.10250
H3408       H  0.90979447  0.53265746  0.65244676     0.09430
H3409       H  0.85893436  0.50586928  0.58440964     0.06960
H3410       H  0.81732593  0.48989788  0.68578913     0.06810
C3411       C  0.49338805  0.86430492  0.67710478     0.03850
C3412       C  0.46478205  0.84805289  0.68833700    -0.12300
C3413       C  0.44761800  0.83683540  0.66379221     0.01350
C3414       C  0.46645806  0.81496973  0.64558983    -0.10830
C3415       C  0.49791156  0.82405319  0.63307793     0.03840
C3416       C  0.51090805  0.85150451  0.64811310    -0.10250
H3417       H  0.45057706  0.85534655  0.70990051     0.09430
H3418       H  0.45379920  0.79736976  0.63358912     0.06960
H3419       H  0.53206461  0.86358233  0.63663479     0.06810
C3420       C  0.63809147  0.50406092  0.68398051     0.03850
C3421       C  0.64370388  0.47022075  0.69144883    -0.12300
C3422       C  0.66354121  0.45298656  0.66983522     0.01350
C3423       C  0.69154272  0.46950104  0.65818693    -0.10830
C3424       C  0.68730893  0.50216522  0.64482443     0.03840
C3425       C  0.65910170  0.51991185  0.65787454    -0.10250
H3426       H  0.62641687  0.45648457  0.70741556     0.09430
H3427       H  0.71106736  0.45478721  0.64744036     0.06960
H3428       H  0.65225883  0.54359789  0.64631741     0.06810
C3429       C  0.98815580  0.85344649  0.81063346     0.03850
C3430       C  0.02197538  0.84944576  0.80726917    -0.12300
C3431       C  0.03614971  0.83652902  0.83534028     0.01350
C3432       C  0.02432176  0.80576948  0.84458688    -0.10830
C3433       C  0.99084845  0.80446862  0.85235842     0.03840
C3434       C  0.97139997  0.82893999  0.83327131    -0.10250
H3435       H  0.03587452  0.86680543  0.79102039     0.09430
H3436       H  0.04032815  0.78817831  0.85691762     0.06960
H3437       H  0.94624655  0.83315270  0.84099891     0.06810
C3438       C  0.63220986  0.49856534  0.82621789     0.03850
C3439       C  0.65079175  0.52331764  0.80876999    -0.12300
C3440       C  0.66789447  0.54232241  0.82747094     0.01350
C3441       C  0.68804540  0.52340787  0.84850682    -0.10830
C3442       C  0.67575179  0.49518376  0.86686489     0.03840
C3443       C  0.64529069  0.48384527  0.85664633    -0.10250
H3444       H  0.64339644  0.53484766  0.78551499     0.09430
H3445       H  0.70818908  0.53519409  0.85741578     0.06960
H3446       H  0.63177874  0.46584377  0.87236853     0.06810
C3447       C  0.50268524  0.62822834  0.82765687     0.03850
C3448       C  0.47591312  0.64607559  0.81490316    -0.12300
C3449       C  0.45969873  0.66985993  0.83355450     0.01350
C3450       C  0.48051100  0.68924910  0.84781366    -0.10830
C3451       C  0.50346509  0.67257037  0.86720075     0.03840
C3452       C  0.51557326  0.64103501  0.85631019    -0.10250
H3453       H  0.46272254  0.63543471  0.79674343     0.09430
H3454       H  0.47098269  0.71288460  0.85428875     0.06960
H3455       H  0.53250126  0.62630079  0.87062738     0.06810
C3456       C  0.85496676  0.98506539  0.80089976     0.03850
C3457       C  0.85007801  0.01919749  0.79779146    -0.12300
C3458       C  0.83887020  0.03305738  0.82633049     0.01350
C3459       C  0.80971640  0.02028583  0.83831459    -0.10830
C3460       C  0.81108102  0.98647636  0.84698288     0.03840
C3461       C  0.83276746  0.96742718  0.82551347    -0.10250
H3462       H  0.86567754  0.03397992  0.78049510     0.09430
H3463       H  0.79406825  0.03580919  0.85314746     0.06960
H3464       H  0.83798288  0.94199592  0.83305935     0.06810
O3465       O  0.70245052  0.98502384  0.58828759    -0.74580
O3466       O  0.72033755  0.53335051  0.60002425    -0.53480
C3467       C  0.70392152  0.50800249  0.61037308     0.79150
O3468       O  0.81139983  0.91077777  0.49514194    -0.59180
O3469       O  0.78935811  0.89845343  0.94930520    -0.52210
C3470       C  0.80804026  0.89048543  0.97284710     0.71170
O3471       O  0.82258069  0.98153462  0.57707263    -0.73740
O3472       O  0.78727148  0.52319673  0.59712519    -0.54300
C3473       C  0.80413887  0.49767237  0.60757912     0.77170
O3474       O  0.69347849  0.90421510  0.52205033    -0.58880
O3475       O  0.71808749  0.90395937  0.96950711    -0.52000
C3476       C  0.69909001  0.89173753  0.99382086     0.73760
Zr3477     Zr  0.71065950  0.95778614  0.53662842     2.54710
O3478       O  0.71715818  0.91186520  0.57812554    -0.79440
O3479       O  0.65496847  0.95654019  0.52202493    -0.92860
Zr3480     Zr  0.80283094  0.96114187  0.52609680     2.64680
O3481       O  0.77794975  0.92773088  0.57284889    -0.97820
O3482       O  0.85913584  0.97161721  0.53291924    -0.79880
O3483       O  0.75669940  0.98234529  0.55378137    -0.83240
O3484       O  0.75696369  0.93734809  0.50785089    -2.17940
O3485       O  0.68455998  0.51184079  0.91958309    -0.66630
O3486       O  0.71380123  0.96482152  0.90495332    -0.51190
C3487       C  0.69272935  0.98880055  0.89877510     0.72140
O3488       O  0.82052933  0.58124234  0.97207932    -0.59530
O3489       O  0.79230461  0.58175623  0.52592820    -0.51510
C3490       C  0.81302453  0.59273715  0.50214335     0.73950
O3491       O  0.80469299  0.50369414  0.90275231    -0.70930
O3492       O  0.78403490  0.95571246  0.89504429    -0.49600
C3493       C  0.80211506  0.97963069  0.88386108     0.75330
O3494       O  0.70027658  0.58234206  0.99634054    -0.66260
O3495       O  0.72066476  0.58746837  0.54757267    -0.53460
C3496       C  0.70137699  0.59784418  0.52517103     0.73710
Zr3497     Zr  0.70625322  0.53063803  0.96884538     2.77540
O3498       O  0.72496103  0.56851615  0.92169337    -0.97010
O3499       O  0.64874821  0.52472106  0.98195388    -0.77830
Zr3500     Zr  0.79812529  0.52943694  0.95601956     2.70070
O3501       O  0.80303222  0.57146963  0.91026574    -0.79080
O3502       O  0.84975370  0.50874736  0.96800818    -0.98160
Zr3503     Zr  0.75540497  0.53642122  0.54794850     2.21500
Zr3504     Zr  0.75378193  0.94903887  0.94941741     2.11130
O3505       O  0.75089105  0.50680197  0.94100151    -2.46850
O3506       O  0.75309987  0.55275989  0.98542762    -0.78870
O3507       O  0.70871416  0.97336890  0.97817783    -0.71060
O3508       O  0.80260519  0.51119354  0.52104698    -2.32020
O3509       O  0.70749222  0.51414007  0.52974049    -2.28230
O3510       O  0.80218960  0.97041296  0.96865930    -0.72820
H3511       H  0.75716247  0.91407571  0.51369713     0.79170
H3512       H  0.82204423  0.51904205  0.52884739     0.80260
H3513       H  0.74894896  0.51085108  0.91770613     0.82490
H3514       H  0.68867137  0.52398427  0.54058843     0.80090
H3515       H  0.86319334  0.99450904  0.52460734     0.43130
H3516       H  0.85719005  0.49759391  0.94831930     0.42100
H3517       H  0.79606343  0.59251028  0.91892450     0.41780
H3518       H  0.74257212  0.58084396  0.92923156     0.39710
H3519       H  0.64280879  0.50670258  0.96939072     0.42840
H3520       H  0.64582500  0.97857016  0.52441418     0.37630
H3521       H  0.72049774  0.92164098  0.59887035     0.43740
H3522       H  0.78168272  0.90406923  0.57107245     0.40160
H3523       H  0.73432665  0.55780211  0.90235515     0.45080
H3524       H  0.64242051  0.94177153  0.53808277     0.43800
H3525       H  0.78767032  0.93317923  0.59287446     0.43940
H3526       H  0.85871715  0.53070905  0.96565718     0.44290
O3527       O  0.99027490  0.81184188  0.58248897    -0.74580
O3528       O  0.53347237  0.79202621  0.59355160    -0.53480
C3529       C  0.50742133  0.81029553  0.59952735     0.79150
O3530       O  0.92347159  0.68075343  0.52356633    -0.59180
O3531       O  0.91453211  0.70379967  0.97212101    -0.52210
C3532       C  0.90752119  0.68454543  0.99852893     0.71170
O3533       O  0.99823940  0.69792290  0.59966454    -0.73740
O3534       O  0.54331981  0.72206578  0.60598079    -0.54300
C3535       C  0.51928131  0.70416569  0.61804514     0.77170
O3536       O  0.92135593  0.79914491  0.49778034    -0.58880
O3537       O  0.90968303  0.77687700  0.95346377    -0.52000
C3538       C  0.90192145  0.79625023  0.97604305     0.73760
Zr3539     Zr  0.97072204  0.79318659  0.53088217     2.54710
O3540       O  0.93388162  0.77648497  0.57849357    -0.79440
O3541       O  0.98749661  0.84983145  0.52293712    -0.92860
Zr3542     Zr  0.97429090  0.69994058  0.54514521     2.64680
O3543       O  0.93392920  0.70746095  0.58974292    -0.97820
O3544       O  0.99058484  0.64429865  0.55895356    -0.79880
O3545       O  0.99585535  0.74842781  0.55890202    -0.83240
O3546       O  0.94999449  0.74445659  0.51464401    -2.17940
O3547       O  0.50794518  0.79820157  0.90642151    -0.66630
O3548       O  0.96277258  0.77214538  0.90000350    -0.51190
C3549       C  0.98522981  0.79186609  0.88878899     0.72140
O3550       O  0.58939805  0.67742057  0.00159656    -0.59530
O3551       O  0.59758362  0.71166063  0.54312476    -0.51510
C3552       C  0.60546762  0.68712635  0.52542727     0.73950
O3553       O  0.53205038  0.68215847  0.91645773    -0.70930
O3554       O  0.98161661  0.70527893  0.91193102    -0.49600
C3555       C  0.00647034  0.68779763  0.90092939     0.75330
O3556       O  0.58698446  0.80774406  0.97798196    -0.66260
O3557       O  0.59785719  0.78897177  0.53173351    -0.53460
C3558       C  0.60502491  0.80471492  0.50315866     0.73710
Zr3559     Zr  0.53552197  0.79280320  0.95820585     2.77540
O3560       O  0.57581499  0.78860638  0.91206351    -0.97010
O3561       O  0.52228397  0.85061565  0.95193272    -0.77830
Zr3562     Zr  0.54250325  0.69895645  0.97188720     2.70070
O3563       O  0.58540926  0.71498067  0.93109430    -0.79080
O3564       O  0.51742176  0.64698833  0.97331302    -0.98160
Zr3565     Zr  0.55095986  0.75262245  0.54923331     2.21500
Zr3566     Zr  0.95980123  0.74194338  0.95556233     2.11130
O3567       O  0.51674838  0.74355781  0.94381442    -2.46850
O3568       O  0.56138699  0.74840280  0.98758581    -0.78870
O3569       O  0.97927936  0.79211285  0.97297311    -0.71060
O3570       O  0.52953840  0.70393054  0.53213836    -2.32020
O3571       O  0.52621645  0.79639425  0.51576412    -2.28230
O3572       O  0.98617856  0.69832641  0.98628753    -0.72820
H3573       H  0.92718149  0.74377346  0.52105921     0.79170
H3574       H  0.54026736  0.68626185  0.54444154     0.80260
H3575       H  0.52266530  0.74249649  0.92067821     0.82490
H3576       H  0.53478082  0.81665354  0.52102262     0.80090
H3577       H  0.01107223  0.64493109  0.56962362     0.43130
H3578       H  0.50568002  0.64314322  0.99514693     0.42100
H3579       H  0.59839860  0.73055055  0.94124000     0.41780
H3580       H  0.57105815  0.76852340  0.90197149     0.39710
H3581       H  0.49846326  0.85210825  0.95483749     0.42840
H3582       H  0.00662175  0.85209767  0.53545372     0.37630
H3583       H  0.94757669  0.76740511  0.59610841     0.43740
H3584       H  0.91324289  0.70982212  0.57914813     0.40160
H3585       H  0.57002415  0.80627893  0.89534940     0.45080
H3586       H  0.97067906  0.86161690  0.53533394     0.43800
H3587       H  0.93386634  0.68621827  0.60307049     0.43940
H3588       H  0.50037939  0.65016996  0.95774531     0.44290
C3589       C  0.68649736  0.63295873  0.52264861     0.03850
C3590       C  0.65408004  0.64321356  0.53457115    -0.12300
C3591       C  0.64037538  0.67485195  0.52245555     0.01350
C3592       C  0.65769051  0.69207598  0.49597093    -0.10830
C3593       C  0.68056183  0.67458093  0.47750175     0.03840
C3594       C  0.70115757  0.65419685  0.49717611    -0.10250
H3595       H  0.63956549  0.62669101  0.55110866     0.09430
H3596       H  0.64622658  0.71335044  0.48346397     0.06960
H3597       H  0.72429495  0.64662883  0.48587190     0.06810
C3598       C  0.68300618  0.85874947  0.48937441     0.03850
C3599       C  0.69216637  0.84654054  0.45866634    -0.12300
C3600       C  0.66632527  0.84045149  0.93928895     0.01350
C3601       C  0.64962532  0.81277138  0.46022880    -0.10830
C3602       C  0.63819665  0.81886042  0.49287536     0.03840
C3603       C  0.65464010  0.84422951  0.50734882    -0.10250
H3604       H  0.71292155  0.85807114  0.94133208     0.09430
H3605       H  0.63757516  0.79828333  0.94404535     0.06960
H3606       H  0.64466028  0.85370329  0.52993881     0.06810
C3607       C  0.82752297  0.62633810  0.50579157     0.03850
C3608       C  0.81223399  0.64297875  0.53169328    -0.12300
C3609       C  0.83108162  0.66256191  0.04786757     0.01350
C3610       C  0.85433672  0.67831772  0.53387466    -0.10830
C3611       C  0.87160324  0.66782127  0.50542068     0.03840
C3612       C  0.85842339  0.63963143  0.49175122    -0.10250
H3613       H  0.78873024  0.64040867  0.03656613     0.09430
H3614       H  0.86472894  0.69670243  0.54702060     0.06960
H3615       H  0.87245691  0.62739084  0.47285777     0.06810
C3616       C  0.86766335  0.81143106  0.98219154     0.03850
C3617       C  0.85583850  0.80468828  0.01538509    -0.12300
C3618       C  0.84226606  0.83137967  0.03088483     0.01350
C3619       C  0.81613203  0.84446534  0.01388485    -0.10830
C3620       C  0.82323777  0.85592758  0.98049333     0.03840
C3621       C  0.85140619  0.83942036  0.96422774    -0.10250
H3622       H  0.86786385  0.78583774  0.03077433     0.09430
H3623       H  0.79693619  0.85646753  0.02818830     0.06870
H3624       H  0.86169461  0.84944158  0.94053722     0.06810
C3625       C  0.89927858  0.84913345  0.03019944     0.24310
C3626       C  0.86677109  0.85659157  0.03712568    -0.23800
C3627       C  0.85875303  0.88943317  0.03039609     0.19220
C3628       C  0.87596499  0.90796455  0.00474815     0.24250
C3629       C  0.90715363  0.89838333  0.99473239    -0.23740
C3630       C  0.91719764  0.86710314  0.00462100     0.19160
F3631       F  0.94297694  0.85420349  0.48852845    -0.13700
F3632       F  0.91211544  0.82307801  0.54810919    -0.16060
F3633       F  0.86302193  0.93510651  0.98889556    -0.16060
F3634       F  0.83303948  0.90213967  0.04718343    -0.13700
C3635       C  0.85711209  0.58655358  0.06609248     0.24310
C3636       C  0.88874018  0.59765413  0.05865767    -0.23800
C3637       C  0.90324241  0.62409364  0.56606693     0.19220
C3638       C  0.87811116  0.63919547  0.58476678     0.24250
C3639       C  0.84048466  0.64118367  0.07831518    -0.23740
C3640       C  0.83327313  0.60781026  0.07937926     0.19160
F3641       F  0.80228207  0.59837117  0.08476021    -0.13700
F3642       F  0.84896047  0.55683839  0.05834015    -0.16060
F3643       F  0.88311351  0.66495196  0.60179346    -0.16060
F3644       F  0.93316934  0.63506403  0.56606002    -0.13700
C3645       C  0.65876722  0.89813184  0.42583865     0.24310
C3646       C  0.64663139  0.86633849  0.42746910    -0.23800
C3647       C  0.61175644  0.86704567  0.93491911     0.19220
C3648       C  0.59640809  0.88588272  0.95836391     0.24250
C3649       C  0.61230240  0.91469780  0.46132199    -0.23740
C3650       C  0.64210481  0.92193323  0.44390499     0.19160
F3651       F  0.65613381  0.95058685  0.44648485    -0.13700
F3652       F  0.68866381  0.90409856  0.41156035    -0.16060
F3653       F  0.56865080  0.87528986  0.97430826    -0.16060
F3654       F  0.59624505  0.84242214  0.92438731    -0.13700
C3655       C  0.64695913  0.60658918  0.46205999     0.24310
C3656       C  0.61511438  0.61824931  0.46305598    -0.23800
C3657       C  0.59509965  0.63552615  0.95061699     0.19220
C3658       C  0.62103802  0.65481278  0.93547061     0.24250
C3659       C  0.66726972  0.65969040  0.44852472    -0.23740
C3660       C  0.67234510  0.62635332  0.44873606     0.19160
F3661       F  0.70302149  0.61512983  0.44657266    -0.13700
F3662       F  0.65271450  0.57551200  0.47231169    -0.16060
F3663       F  0.61763295  0.67163214  0.90578365    -0.16060
F3664       F  0.56718983  0.63530548  0.93590508    -0.13700
C3665       C  0.88070067  0.56197916  0.90095298     0.24310
C3666       C  0.89848954  0.03197609  0.90837111    -0.23800
C3667       C  0.89613089  0.00407760  0.89319849     0.19220
C3668       C  0.87867822  0.00410110  0.86669665     0.24250
C3669       C  0.86228659  0.03314801  0.85308858    -0.23740
C3670       C  0.86200808  0.56292948  0.87345505     0.19160
F3671       F  0.84797524  0.59156289  0.86187830    -0.13700
F3672       F  0.88241031  0.58878102  0.91779483    -0.16060
F3673       F  0.87914551  0.97380501  0.85715493    -0.16060
F3674       F  0.91132780  0.97565515  0.90450063    -0.13700
C3675       C  0.92800928  0.66962190  0.88893932     0.24310
C3676       C  0.43028096  0.65904636  0.85591857    -0.23800
C3677       C  0.42364223  0.62620135  0.85546656     0.19220
C3678       C  0.43968159  0.60425564  0.87755501     0.24250
C3679       C  0.45107278  0.61562679  0.90627998    -0.23740
C3680       C  0.94051355  0.64788046  0.91401125     0.19160
F3681       F  0.94437176  0.65802449  0.94393715    -0.13700
F3682       F  0.92064631  0.70115323  0.89449576    -0.16060
F3683       F  0.44382639  0.57279171  0.87085457    -0.16060
F3684       F  0.41108966  0.61628670  0.82864141    -0.13700
C3685       C  0.63354728  0.06466442  0.89964995     0.24310
C3686       C  0.60118529  0.55770522  0.89416718    -0.23800
C3687       C  0.59166292  0.56589773  0.86177973     0.19220
C3688       C  0.61516700  0.57412343  0.83602909     0.24250
C3689       C  0.64814319  0.57007137  0.84226106    -0.23740
C3690       C  0.65552800  0.07563031  0.87381549     0.19160
F3691       F  0.68547962  0.08389077  0.87986535    -0.13700
F3692       F  0.64406977  0.05799752  0.92958601    -0.16060
F3693       F  0.60635041  0.58049784  0.80470909    -0.16060
F3694       F  0.56054673  0.56390552  0.85459464    -0.13700
C3695       C  0.56354859  0.87631863  0.86513680     0.24310
C3696       C  0.03571899  0.86051049  0.86180576    -0.23800
C3697       C  0.00649349  0.87127427  0.87920795     0.19220
C3698       C  0.00475197  0.89893613  0.89521002     0.24250
C3699       C  0.03206588  0.91547151  0.89881673    -0.23740
C3700       C  0.56153889  0.90338581  0.88433450     0.19160
F3701       F  0.58826914  0.92040576  0.88770897    -0.13700
F3702       F  0.59245504  0.86742120  0.85037669    -0.16060
F3703       F  0.97583014  0.90822554  0.91013655    -0.16060
F3704       F  0.97832739  0.85615528  0.88354128    -0.13700
C3705       C  0.59191781  0.94206776  0.62354786     0.24310
C3706       C  0.60362846  0.46531424  0.60093827    -0.23800
C3707       C  0.63653966  0.46893093  0.59647040     0.19220
C3708       C  0.65629623  0.44491752  0.61190394     0.24250
C3709       C  0.64717261  0.43539056  0.64463845    -0.23740
C3710       C  0.61422811  0.92827477  0.64627630     0.19160
F3711       F  0.60607403  0.90266070  0.66802269    -0.13700
F3712       F  0.56240423  0.92918229  0.62355605    -0.16060
F3713       F  0.66696900  0.42054333  0.59352930    -0.16060
F3714       F  0.64855802  0.49174473  0.57338779    -0.13700
C3715       C  0.45515161  0.91514717  0.63209455     0.24310
C3716       C  0.46620279  0.90638327  0.60025645    -0.23800
C3717       C  0.94652840  0.86745404  0.59835736     0.19220
C3718       C  0.93325529  0.84320684  0.62197127     0.24250
C3719       C  0.42945594  0.86354695  0.64362411    -0.23740
C3720       C  0.43244908  0.89586246  0.65146473     0.19160
F3721       F  0.42017350  0.90509441  0.68102226    -0.13700
F3722       F  0.46560218  0.94180955  0.64461640    -0.16060
F3723       F  0.91067457  0.82301395  0.61391498    -0.16060
F3724       F  0.93150042  0.87594251  0.57089088    -0.13700
C3725       C  0.94304708  0.46756342  0.60755068     0.24310
C3726       C  0.92644309  0.46084884  0.58020214    -0.23800
C3727       C  0.87312209  0.93415098  0.60747645     0.19220
C3728       C  0.84938153  0.92187056  0.63132908     0.24250
C3729       C  0.89370333  0.46677034  0.63601599    -0.23740
C3730       C  0.92653603  0.46481945  0.63780230     0.19160
F3731       F  0.94027291  0.47472717  0.66360694    -0.13700
F3732       F  0.97090435  0.48306299  0.60524506    -0.16060
F3733       F  0.82504643  0.90395819  0.62307269    -0.16060
F3734       F  0.87246407  0.92798328  0.57605092    -0.13700
C3735       C  0.94150810  0.62351767  0.64303338     0.24310
C3736       C  0.46762738  0.63927128  0.65335808    -0.23800
C3737       C  0.49730782  0.62709282  0.63778188     0.19220
C3738       C  0.49784911  0.60909643  0.61205569     0.24250
C3739       C  0.46997773  0.59728235  0.60316869    -0.23740
C3740       C  0.94394917  0.59709169  0.62326083     0.19160
F3741       F  0.91722279  0.58141567  0.61730974    -0.13700
F3742       F  0.91216180  0.63347989  0.65594823    -0.16060
F3743       F  0.52723620  0.59956300  0.59790426    -0.16060
F3744       F  0.52737669  0.62706044  0.64742631    -0.13700
loop_ 
_geom_bond_atom_site_label_1 
_geom_bond_atom_site_label_2 
_geom_bond_distance 
_geom_bond_site_symmetry_2 
_ccdc_geom_bond_type 
O1           C12   1.284       .  A
O1         Zr505   2.383       .  S
O2           C13   1.294       .  A
O2        Zr1908   2.486       .  S
O3           C14   1.291       .  A
O3         Zr945   2.436       .  S
O4           C15   1.284       .  A
O4        Zr1881   2.427   1_455  S
O5           C15   1.292       .  A
O5          Zr39   2.437   1_565  S
O6           C14   1.296       .  A
O6         Zr506   2.481       .  S
O7           C13   1.282       .  A
O7         Zr945   2.411       .  S
O8           C12   1.269       .  A
O8           Zr9   2.423   1_545  S
Zr9         O939   2.435       .  S
Zr9        O1876   2.433       .  S
Zr9         O943   2.412       .  S
Zr9          O11   2.286   1_565  S
Zr9        O2818   2.326       .  S
Zr9        O1891   2.391   1_565  S
Zr9         O953   2.302       .  S
O10         Zr36   2.312       .  S
O10       Zr2817   2.326   1_455  S
O10        Zr975   2.360       .  S
O11        Zr505   2.317       .  S
O11       Zr1442   2.263       .  S
C12        C2335   1.431       .  S
C13        C2312   1.506       .  S
C14        C1386   1.498       .  S
C15         C430   1.484       .  S
H16          O17   0.956       .  S
O17        Zr945   2.301       .  S
O17       Zr1908   2.281       .  S
O17        Zr506   2.277       .  S
H18          O19   0.966       .  S
O19         Zr39   2.376       .  S
O19       Zr1881   2.388   1_445  S
O19       Zr2377   2.387   1_455  S
O20          C43   1.264       .  A
O20        Zr504   2.312       .  S
O21          C44   1.303       .  A
O21       Zr1909   2.502       .  S
O22          C45   1.282       .  A
O22         Zr38   2.399       .  S
O23          C46   1.289       .  A
O23        Zr975   2.435   1_556  S
O24          C47   1.280   1_554  A
O24         Zr39   2.378       .  S
O25          C48   1.282       .  A
O25        Zr974   2.434       .  S
O26          C49   1.281       .  A
O26       Zr1912   2.419       .  S
O27          C50   1.288       .  A
O27        Zr976   2.418       .  S
O28          C49   1.262       .  A
O28         Zr38   2.340       .  S
O29          C50   1.303       .  A
O29        Zr507   2.497       .  S
O30         C513   1.294       .  A
O30       Zr1908   2.436   1_556  S
O31          C48   1.301       .  A
O31         Zr37   2.504       .  S
O32         C515   1.284       .  A
O32       Zr1909   2.497   1_455  S
O33          C46   1.293   1_554  A
O33         Zr36   2.449       .  S
O34          C43   1.304       .  A
O34         Zr40   2.506       .  S
O35          C44   1.291       .  A
O35        Zr976   2.430   1_655  S
Zr36       O1874   2.488   1_455  S
Zr36        O488   2.345   1_554  S
Zr36       O1902   2.435   1_454  S
Zr36       O1889   2.281   1_455  S
Zr36       O2382   2.366   1_454  S
Zr36        O522   2.348   1_554  S
Zr37        O469   2.400       .  S
Zr37       O1893   2.501       .  S
Zr37       O1904   2.532       .  S
Zr37         O52   2.260       .  S
Zr37        O479   2.353       .  S
Zr37       O2359   2.384       .  S
Zr37       O1913   2.282       .  S
Zr38        O474   2.363       .  S
Zr38        O961   2.435       .  S
Zr38         O42   2.334       .  S
Zr38       O1415   2.376       .  S
Zr38        O485   2.335       .  S
Zr38        O988   2.261       .  S
Zr39        O959   2.438   1_544  S
Zr39        O497   2.503   1_554  S
Zr39        O946   2.357   1_545  S
Zr39        O509   2.338   1_554  S
Zr39       O1458   2.303   1_544  S
Zr40       O1898   2.451   1_455  S
Zr40        O963   2.406       .  S
Zr40        O971   2.442   1_455  S
Zr40         O54   2.308       .  S
Zr40        O977   2.315       .  S
Zr40       O1914   2.323   1_455  S
Zr40       O2860   2.303   1_455  S
O41       Zr1909   2.303   1_455  S
O41        Zr507   2.338       .  S
O41        Zr976   2.301       .  S
O42       Zr2376   2.406       .  S
O42       Zr1912   2.361       .  S
C43        C2295   1.448       .  S
C44         C403   1.497       .  S
C45         O498   1.295       .  A
C45         C353   1.472       .  S
C46         C373   1.489       .  S
C47         O500   1.286       .  A
C47         C380   1.498       .  S
C48         C360   1.509       .  S
C49         C390   1.407       .  S
C50         C410   1.504       .  S
H51          O52   0.955       .  S
O52        Zr974   2.258       .  S
O52       Zr2848   2.354       .  S
H53          O54   0.960       .  S
O54        Zr504   2.368       .  S
O54       Zr1443   2.308       .  S
C55          C66   1.547       .  S
C55          C56   1.408   1_455  A
C55          C60   1.472       .  A
C56          C57   1.388       .  A
C56          H61   1.085       .  S
C57         C460   1.506       .  S
C57          C58   1.386       .  A
C58          C59   1.410   1_655  A
C58          H62   1.085       .  S
C59         C259   1.549       .  S
C59          C60   1.482       .  A
C60          H63   1.082       .  S
O64        C1938   1.307       .  A
O64         Zr76   2.501       .  S
O65          C66   1.301       .  A
O65        Zr102   2.513       .  S
C66        O1936   1.306       .  A
O67        C1005   1.313       .  A
O67         Zr79   2.540   1_565  S
O68          C69   1.297       .  A
O68        Zr103   2.494       .  S
C69        O1003   1.312       .  A
C69         C180   1.549       .  S
O70        C1944   1.302       .  A
O70         Zr79   2.524       .  S
O71          C72   1.315       .  A
O71        Zr102   2.566       .  S
C72        O1942   1.300   1_455  A
C72         C171   1.560       .  S
O73        C1011   1.297       .  A
O73         Zr76   2.505       .  S
O74          C75   1.327       .  A
O74        Zr103   2.595       .  S
C75        O1009   1.298       .  A
C75        C1062   1.580       .  S
Zr76         O82   2.346       .  S
Zr76         O83   2.347       .  S
Zr76       O1042   2.393   1_545  S
Zr76       O1980   2.371       .  S
Zr76         O77   2.421       .  S
Zr76         O78   2.389       .  S
O77         H120   0.990       .  S
O78         H119   0.978       .  S
O78         H123   0.983       .  S
Zr79         O83   2.331       .  S
Zr79         O82   2.357       .  S
Zr79       O1979   2.382       .  S
Zr79       O1045   2.381   1_545  S
Zr79         O80   2.418       .  S
Zr79         O81   2.380       .  S
O80         H121   0.989       .  S
O80         H124   0.985       .  S
O81         H114   0.990       .  S
O82       Zr1974   2.398       .  S
O83       Zr1039   2.399   1_545  S
O83         H110   0.963       .  S
O84        C1958   1.294       .  A
O84         Zr96   2.497       .  S
O85          C86   1.331       .  A
O85        Zr103   2.613       .  S
C86        O1956   1.293       .  A
C86        C2007   1.582       .  S
O87        C1025   1.293       .  A
O87         Zr99   2.499       .  S
O88          C89   1.311   1_545  A
O88        Zr102   2.516       .  S
C89        O1023   1.294       .  A
C89         C162   1.551       .  S
O90        C1964   1.303   1_455  A
O90         Zr99   2.481       .  S
O91          C92   1.297       .  A
O91        Zr103   2.489       .  S
C92        O1962   1.304       .  A
C92         C153   1.526       .  S
O93        C1031   1.293       .  A
O93         Zr96   2.446       .  S
O94          C95   1.311       .  A
O94        Zr102   2.543       .  S
C95        O1029   1.290   1_545  A
C95         C144   1.510       .  S
Zr96        O104   2.322       .  S
Zr96        O105   2.359       .  S
Zr96       O1044   2.421       .  S
Zr96       O1978   2.394   1_455  S
Zr96         O97   2.436       .  S
Zr96         O98   2.381       .  S
O97         H117   0.986       .  S
O97         H122   0.989       .  S
O98         H118   0.978       .  S
Zr99        O105   2.343       .  S
Zr99        O104   2.319       .  S
Zr99       O1981   2.383   1_455  S
Zr99       O1043   2.383       .  S
Zr99        O100   2.427       .  S
Zr99        O101   2.301       .  S
O100        H116   0.988       .  S
O101        H115   0.980       .  S
O101        H125   0.984       .  S
Zr102       O107   2.393       .  S
Zr102       O108   2.410       .  S
Zr102      O1954   2.396   1_455  S
Zr102      O1041   2.394   1_545  S
Zr103       O106   2.373       .  S
Zr103       O109   2.417       .  S
Zr103      O1019   2.399       .  S
Zr103      O1976   2.386       .  S
O104      Zr1975   2.387   1_455  S
O104        H112   0.962       .  S
O105      Zr1038   2.395       .  S
O106      Zr1012   2.392       .  S
O106      Zr1968   2.394       .  S
O107      Zr1951   2.378   1_455  S
O107      Zr1035   2.372   1_545  S
O107        H111   0.966       .  S
O108      Zr1948   2.367   1_455  S
O108      Zr1032   2.420   1_545  S
O108        H113   0.966       .  S
O109      Zr1015   2.380       .  S
O109      Zr1971   2.380       .  S
C126       C1011   1.577       .  S
C126        C127   1.411   1_545  A
C126        C131   1.478       .  A
C127        C128   1.409       .  A
C127        H132   1.083       .  S
C128        C453   1.526       .  S
C128        C129   1.397       .  A
C129        C130   1.408   1_565  A
C129        H133   1.085       .  S
C130        C197   1.550       .  S
C130        C131   1.478       .  A
C131        H134   1.082       .  S
C135       C1958   1.580       .  S
C135        C136   1.413   1_455  A
C135        C140   1.483       .  A
C136        C137   1.414       .  A
C136        H141   1.083       .  S
C137        C443   1.527       .  S
C137        C138   1.391       .  A
C138        C139   1.408   1_655  A
C138        H142   1.083       .  S
C139        C253   1.553       .  S
C139        C140   1.479       .  A
C140        H143   1.081       .  S
C144        C145   1.410   1_545  A
C144        C149   1.449       .  A
C145        C146   1.388       .  A
C145        H150   1.074       .  S
C146        C433   1.517       .  S
C146        C147   1.400       .  A
C147        C148   1.414   1_565  A
C147        H151   1.085       .  S
C148        C191   1.520       .  S
C148        C149   1.450       .  A
C149        H152   1.082       .  S
C153        C154   1.409       .  A
C153        C158   1.463       .  A
C154        C155   1.382       .  A
C154        H159   1.084       .  S
C155        C420   1.522       .  S
C155        C156   1.384       .  A
C156        C157   1.408       .  A
C156        H160   1.081       .  S
C157        C273   1.532       .  S
C157        C158   1.471       .  A
C158        H161   1.082       .  S
C162        C163   1.407   1_565  A
C162        C167   1.472       .  A
C163        C164   1.386       .  A
C163        H168   1.083       .  S
C164        C413   1.525       .  S
C164        C165   1.412       .  A
C165        C166   1.418   1_545  A
C165        H169   1.084       .  S
C166       C1147   1.554       .  S
C166        C167   1.472       .  A
C167        H170   1.081       .  S
C171        C172   1.419   1_455  A
C171        C176   1.473       .  A
C172        C173   1.416       .  A
C172        H177   1.084       .  S
C173        C400   1.529       .  S
C173        C174   1.387       .  A
C174        C175   1.406   1_655  A
C174        H178   1.083       .  S
C175       C2151   1.555       .  S
C175        C176   1.473       .  A
C176        H179   1.082       .  S
C180        C181   1.407       .  A
C180        C185   1.474       .  A
C181        C182   1.388       .  A
C181        H186   1.084       .  S
C182        C393   1.497       .  S
C182        C183   1.379       .  A
C183        C184   1.401       .  A
C183        H187   1.086       .  S
C184        C217   1.545       .  S
C184        C185   1.481       .  A
C185        H188   1.083       .  S
O189       C1127   1.290       .  A
O189       Zr201   2.459       .  S
O190        C191   1.290       .  A
O190       Zr227   2.478       .  S
C191       O1125   1.292   1_545  A
O192        C662   1.293       .  A
O192       Zr204   2.524   1_556  S
O193        C194   1.291       .  A
O193       Zr228   2.484       .  S
C194        O660   1.297       .  A
C194        C344   1.527       .  S
O195       C1133   1.304       .  A
O195       Zr204   2.513       .  S
O196        C197   1.308       .  A
O196       Zr227   2.542       .  S
C197       O1131   1.303   1_545  A
O198        C668   1.293   1_554  A
O198       Zr201   2.488       .  S
O199        C200   1.299       .  A
O199       Zr228   2.463       .  S
C200        O666   1.290       .  A
C200        C790   1.515       .  S
Zr201       O207   2.377       .  S
Zr201       O208   2.350       .  S
Zr201       O699   2.364   1_554  S
Zr201      O1169   2.396       .  S
Zr201       O202   2.444       .  S
Zr201       O203   2.433       .  S
O202        H245   0.990       .  S
O203        H244   0.984       .  S
O203        H248   0.986       .  S
Zr204       O208   2.370       .  S
Zr204       O207   2.336       .  S
Zr204      O1168   2.362       .  S
Zr204       O702   2.401   1_554  S
Zr204       O205   2.435       .  S
Zr204       O206   2.434       .  S
O205        H246   0.989       .  S
O205        H249   0.983       .  S
O206        H239   0.988       .  S
O207      Zr1163   2.393       .  S
O208       Zr696   2.407   1_554  S
O208        H235   0.965       .  S
O209       C1147   1.289   1_545  A
O209       Zr221   2.446       .  S
O210        C211   1.323       .  A
O210       Zr228   2.615       .  S
C211       O1145   1.287       .  A
C211       C1102   1.563       .  S
O212        C682   1.294       .  A
O212       Zr224   2.502       .  S
O213        C214   1.305   1_554  A
O213       Zr227   2.497       .  S
C214        O680   1.297       .  A
C214        C331   1.545   1_556  S
O215       C1153   1.316       .  A
O215       Zr224   2.548   1_565  S
O216        C217   1.288       .  A
O216       Zr228   2.464       .  S
C217       O1151   1.316       .  A
O218        C688   1.293       .  A
O218       Zr221   2.509       .  S
O219        C220   1.291       .  A
O219       Zr227   2.496       .  S
C220        O686   1.286   1_554  A
C220        C313   1.540       .  S
Zr221       O229   2.362       .  S
Zr221       O230   2.341       .  S
Zr221       O701   2.358       .  S
Zr221      O1167   2.371   1_545  S
Zr221       O222   2.449       .  S
Zr221       O223   2.434       .  S
O222        H242   0.989       .  S
O222        H247   0.987       .  S
O223        H243   0.985       .  S
Zr224       O230   2.393       .  S
Zr224       O229   2.358       .  S
Zr224      O1170   2.367   1_545  S
Zr224       O700   2.417       .  S
Zr224       O225   2.426       .  S
Zr224       O226   2.404       .  S
O225        H241   0.988       .  S
O226        H240   0.988       .  S
O226        H250   0.988       .  S
Zr227       O232   2.373       .  S
Zr227       O233   2.432       .  S
Zr227      O1143   2.393   1_545  S
Zr227       O698   2.396   1_554  S
Zr228       O231   2.364       .  S
Zr228       O234   2.448       .  S
Zr228       O676   2.426       .  S
Zr228      O1165   2.357       .  S
O229      Zr1164   2.360   1_545  S
O229        H237   0.962       .  S
O230       Zr695   2.384       .  S
O231       Zr669   2.370       .  S
O231      Zr1157   2.366       .  S
O232      Zr1140   2.362   1_545  S
O232       Zr692   2.368   1_554  S
O232        H236   0.963       .  S
O233      Zr1137   2.395   1_545  S
O233       Zr689   2.371   1_554  S
O233        H238   0.966       .  S
O234       Zr672   2.433       .  S
O234      Zr1160   2.367       .  S
O251       C2125   1.303       .  A
O251       Zr263   2.500       .  S
O252        C253   1.310       .  A
O252       Zr289   2.556       .  S
C253       O2123   1.303   1_455  A
O254        C724   1.305   1_554  A
O254       Zr266   2.519       .  S
O255        C256   1.300       .  A
O255       Zr290   2.517       .  S
C256        O722   1.306       .  A
C256        C803   1.555       .  S
O257       C2131   1.304       .  A
O257       Zr266   2.485       .  S
O258        C259   1.292       .  A
O258       Zr289   2.491       .  S
C259       O2129   1.306       .  A
O260        C730   1.296       .  A
O260       Zr263   2.537   1_556  S
O261        C262   1.285       .  A
O261       Zr290   2.507       .  S
C262        O728   1.278       .  A
C262        C340   1.530       .  S
Zr263       O269   2.334       .  S
Zr263       O270   2.375       .  S
Zr263       O761   2.379   1_554  S
Zr263      O2167   2.368       .  S
Zr263       O264   2.447       .  S
Zr263       O265   2.440       .  S
O264        H307   0.989       .  S
O265        H306   0.987       .  S
O265        H310   0.973       .  S
Zr266       O270   2.358       .  S
Zr266       O269   2.344       .  S
Zr266      O2166   2.381       .  S
Zr266       O764   2.366   1_554  S
Zr266       O267   2.421       .  S
Zr266       O268   2.401       .  S
O267        H308   0.988       .  S
O267        H311   0.986       .  S
O268        H301   0.988       .  S
O269      Zr2161   2.371       .  S
O270       Zr758   2.427   1_554  S
O270        H297   0.966       .  S
O271       C2145   1.298   1_455  A
O271       Zr283   2.467       .  S
O272        C273   1.289       .  A
O272       Zr290   2.478       .  S
C273       O2143   1.300       .  A
O274        C744   1.292       .  A
O274       Zr286   2.454       .  S
O275        C276   1.301       .  A
O275       Zr289   2.503       .  S
C276        O742   1.295       .  A
C276        C315   1.506       .  S
O277       C2151   1.290       .  A
O277       Zr286   2.509       .  S
O278        C279   1.316       .  A
O278       Zr290   2.551       .  S
C279       O2149   1.291       .  A
C279       C2047   1.566       .  S
O280        C750   1.289       .  A
O280       Zr283   2.448       .  S
O281        C282   1.297       .  A
O281       Zr289   2.499       .  S
C282        O748   1.292   1_554  A
C282        C326   1.519   1_554  S
Zr283       O291   2.337       .  S
Zr283       O292   2.368       .  S
Zr283       O763   2.389       .  S
Zr283      O2165   2.359   1_455  S
Zr283       O284   2.445       .  S
Zr283       O285   2.416       .  S
O284        H304   0.987       .  S
O284        H309   0.989       .  S
O285        H305   0.983       .  S
Zr286       O292   2.372       .  S
Zr286       O291   2.338       .  S
Zr286      O2168   2.356   1_455  S
Zr286       O762   2.385       .  S
Zr286       O287   2.403       .  S
Zr286       O288   2.403       .  S
O287        H303   0.989       .  S
O288        H302   0.987       .  S
O288        H312   0.987   1_455  S
Zr289       O294   2.425       .  S
Zr289       O295   2.387       .  S
Zr289      O2141   2.370   1_455  S
Zr289       O760   2.406   1_554  S
Zr290       O293   2.444       .  S
Zr290       O296   2.387       .  S
Zr290       O738   2.441       .  S
Zr290      O2163   2.388       .  S
O291      Zr2162   2.367   1_455  S
O291        H299   0.962       .  S
O292       Zr757   2.403       .  S
O293       Zr731   2.377       .  S
O293      Zr2155   2.360       .  S
O294      Zr2138   2.379   1_455  S
O294       Zr754   2.395   1_554  S
O294        H298   0.964       .  S
O295      Zr2135   2.368   1_455  S
O295       Zr751   2.364   1_554  S
O295        H300   0.962       .  S
O296       Zr734   2.383       .  S
O296      Zr2158   2.369       .  S
C313        C314   1.453       .  A
C313        C318   1.423   1_554  A
C314        C315   1.454       .  A
C314        H319   1.082       .  S
C315        C316   1.406   1_554  A
C316        C317   1.382       .  A
C316        H320   1.082       .  S
C317        C383   1.526       .  S
C317        C318   1.421       .  A
C318        H321   1.084       .  S
C322        C668   1.524       .  S
C322        C323   1.417       .  A
C322        C327   1.455   1_556  A
C323        C792   1.387       .  A
C323        H796   1.082       .  S
C324        C838   1.528       .  S
C324        C791   1.386       .  A
C324        C793   1.402       .  A
C325        C326   1.421       .  A
C325        C792   1.398       .  A
C325        H797   1.084       .  S
C326        C327   1.454   1_556  A
C327        H330   1.082       .  S
H328        C791   1.082       .  S
H329        C793   1.084       .  S
C331        C332   1.412       .  A
C331        C336   1.462   1_554  A
C332        C801   1.392       .  A
C332        H805   1.083       .  S
C333        C363   1.524       .  S
C333        C800   1.390       .  A
C333        C802   1.406       .  A
C334        C335   1.410       .  A
C334        C801   1.406       .  A
C334        H338   1.084       .  S
C335        C724   1.538   1_554  S
C335        C336   1.463   1_554  A
C336        H339   1.082       .  S
H337        C800   1.083       .  S
C340        C341   1.422       .  A
C340        C345   1.467       .  A
C341        C342   1.396       .  A
C341        H346   1.084       .  S
C342        C350   1.530       .  S
C342        C343   1.384       .  A
C343        C344   1.413       .  A
C343        H347   1.078       .  S
C344        C345   1.466       .  A
C345        H348   1.082       .  S
C349        C350   1.383       .  A
C349        C354   1.391       .  A
C349        F824   1.326       .  S
C350        C351   1.395       .  A
C351        C352   1.411       .  A
C351        F358   1.345       .  S
C352        C353   1.402       .  A
C352        F357   1.348       .  S
C353        C354   1.381       .  A
C354        F823   1.354       .  S
F355        C822   1.349   1_556  S
F356        C817   1.336       .  S
C359        C360   1.423       .  A
C359        C364   1.416       .  A
C359        F366   1.353       .  S
C360        C829   1.412       .  A
C361        C362   1.406       .  A
C361        C828   1.414       .  A
C361        F368   1.349       .  S
C362        C831   1.396       .  A
C362        F367   1.350       .  S
C363        C364   1.404       .  A
C363        C830   1.385       .  A
C364        F365   1.354       .  S
C369        C370   1.409       .  A
C369        C374   1.411       .  A
C369        F376   1.352       .  S
C370        C792   1.527       .  S
C370        C839   1.395       .  A
C371        C372   1.392       .  A
C371        C838   1.396       .  A
C371        F378   1.341       .  S
C372        C841   1.400       .  A
C372        F377   1.352       .  S
C373        C374   1.414       .  A
C373        C840   1.402       .  A
C374        F375   1.349       .  S
C379        C380   1.393       .  A
C379        C384   1.395       .  A
C379        F386   1.349   1_556  S
C380        C849   1.421       .  A
C381        C382   1.431       .  A
C381        C848   1.413       .  A
C381        F388   1.340       .  S
C382        C851   1.405       .  A
C382        F387   1.356       .  S
C383        C384   1.364       .  A
C383        C850   1.411       .  A
C384        F385   1.320       .  S
C389        C394   1.405       .  A
C389       C1326   1.409       .  A
C389        F396   1.356       .  S
C390        C391   1.363       .  A
C390       C1325   1.408       .  A
C391        C392   1.332       .  A
C391        F398   1.370       .  S
C392        C393   1.433       .  A
C392        F397   1.340       .  S
C393       C1330   1.406       .  A
C394       C1329   1.405       .  A
C394        F395   1.357       .  S
C399        C404   1.417       .  A
C399       C2272   1.421       .  A
C399        F406   1.356       .  S
C400        C401   1.390       .  A
C400       C2271   1.418       .  A
C401        C402   1.403       .  A
C401        F408   1.347       .  S
C402        C403   1.418       .  A
C402        F407   1.347       .  S
C403       C2276   1.406       .  A
C404       C2275   1.407       .  A
C404        F405   1.352       .  S
C409        C414   1.402       .  A
C409       C1346   1.408       .  A
C409        F416   1.334       .  S
C410        C411   1.416       .  A
C410       C1345   1.404       .  A
C411        C412   1.409       .  A
C411        F418   1.355       .  S
C412        C413   1.415       .  A
C412        F417   1.356       .  S
C413       C1350   1.391       .  A
C414       C1349   1.391       .  A
C414        F415   1.349       .  S
C419        C424   1.418       .  A
C419       C2292   1.411       .  A
C419        F426   1.357       .  S
C420        C421   1.435       .  A
C420       C2291   1.411       .  A
C421        C422   1.359       .  A
C421        F428   1.339       .  S
C422        C423   1.370       .  A
C422        F427   1.365       .  S
C423       C1915   1.444       .  S
C423       C2296   1.406       .  A
C424       C2295   1.411       .  A
C424        F425   1.355       .  S
C429        C434   1.429       .  A
C429       C1366   1.431       .  A
C429        F436   1.352       .  S
C430        C431   1.386       .  A
C430       C1365   1.430       .  A
C431        C432   1.393       .  A
C431        F438   1.355   1_565  S
C432        C433   1.392       .  A
C432        F437   1.353       .  S
C433       C1370   1.417       .  A
C434       C1369   1.416       .  A
C434        F435   1.354       .  S
C439        C440   1.397       .  A
C439        C444   1.409       .  A
C439        F446   1.330       .  S
C440       C1885   1.506       .  S
C440       C2313   1.398       .  A
C441        C442   1.421       .  A
C441       C2312   1.398       .  A
C441        F448   1.334       .  S
C442       C2315   1.413       .  A
C442        F447   1.352       .  S
C443        C444   1.388       .  A
C443       C2314   1.413       .  A
C444        F445   1.349       .  S
C449        C450   1.400       .  A
C449        C454   1.414       .  A
C449        F456   1.342       .  S
C450        C950   1.498       .  S
C450       C1387   1.399       .  A
C451        C452   1.410       .  A
C451       C1386   1.400       .  A
C451        F458   1.333       .  S
C452       C1389   1.408       .  A
C452        F457   1.351       .  S
C453        C454   1.396       .  A
C453       C1388   1.408       .  A
C454        F455   1.356       .  S
C459        C464   1.414       .  A
C459       C2332   1.411       .  A
C459        F466   1.357       .  S
C460        C461   1.429       .  A
C460       C2331   1.411       .  A
C461        C462   1.336       .  A
C461        F468   1.337   1_655  S
C462        C463   1.369       .  A
C462        F467   1.370   1_655  S
C463       C1884   1.429       .  S
C463       C2336   1.405       .  A
C464       C2335   1.405       .  A
C464        F465   1.356       .  S
O469        C480   1.275       .  A
O470        C481   1.304       .  A
O470      Zr2376   2.505       .  S
O471        C482   1.250       .  A
O471      Zr1413   2.328       .  S
O472        C483   1.283       .  A
O472      Zr2349   2.424   1_455  S
O473        C483   1.292       .  A
O473       Zr507   2.440   1_565  S
O474        C482   1.257       .  A
O475        C481   1.278       .  A
O475      Zr1413   2.419       .  S
O476        C480   1.264       .  A
O476       Zr477   2.335       .  S
Zr477      O1407   2.320       .  S
Zr477      O2344   2.369   1_545  S
Zr477      O1411   2.422   1_545  S
Zr477      O3286   2.274   1_545  S
Zr477       O479   2.341       .  S
Zr477      O2359   2.357       .  S
Zr477      O1421   2.346   1_545  S
O478      Zr3285   2.285       .  S
O478       Zr504   2.321       .  S
O478      Zr1443   2.344       .  S
O479       Zr974   2.377       .  S
C480       C2803   1.420       .  S
C481       C2780   1.506       .  S
C482       C1854   1.455       .  S
C483        C898   1.485       .  S
H484        O485   0.962       .  S
O485      Zr1413   2.344       .  S
O485      Zr2376   2.285       .  S
H486        O487   0.966       .  S
O487      Zr2349   2.391   1_445  S
O487      Zr1909   2.390   1_455  S
O487       Zr507   2.374       .  S
O488        C511   1.273       .  A
O489        C512   1.303       .  A
O489      Zr2377   2.510   1_556  S
O490        C513   1.281       .  A
O490       Zr506   2.371   1_556  S
O491        C514   1.288       .  A
O491      Zr1443   2.436       .  S
O492        C515   1.280       .  A
O492       Zr507   2.388       .  S
O493        C516   1.295       .  A
O493      Zr1442   2.449       .  S
O494        C517   1.277       .  A
O494      Zr2380   2.376       .  S
O495        C518   1.284       .  A
O495      Zr1444   2.402       .  S
O496        C517   1.277       .  A
O496       Zr506   2.382   1_556  S
O497        C518   1.305       .  A
O498      Zr2376   2.438       .  S
O499        C516   1.297       .  A
O499       Zr505   2.447       .  S
O500      Zr2377   2.483   1_456  S
O501        C514   1.291       .  A
O501       Zr504   2.444       .  S
O502        C511   1.298       .  A
O502       Zr508   2.465       .  S
O503        C512   1.288       .  A
O503      Zr1444   2.417   1_655  S
Zr504      O2342   2.503   1_455  S
Zr504      O2370   2.463   1_455  S
Zr504      O2357   2.269   1_455  S
Zr504      O1914   2.387   1_455  S
Zr505      O2361   2.509   1_554  S
Zr505      O2372   2.480   1_554  S
Zr505      O1891   2.385       .  S
Zr505      O2381   2.311   1_554  S
Zr505       O520   2.260   1_554  S
Zr506      O1429   2.450       .  S
Zr506       O947   2.263       .  S
Zr506       O510   2.368   1_554  S
Zr506      O1456   2.283   1_554  S
Zr507      O1427   2.442   1_545  S
Zr507      O1414   2.357   1_545  S
Zr507       O990   2.306   1_545  S
Zr508      O2366   2.375   1_455  S
Zr508      O1431   2.401       .  S
Zr508      O1439   2.424   1_455  S
Zr508      O1445   2.309       .  S
Zr508      O2382   2.337   1_455  S
Zr508       O522   2.296       .  S
Zr508      O3328   2.323   1_455  S
O509      Zr2377   2.311   1_456  S
O509      Zr1444   2.309       .  S
O510      Zr1908   2.364   1_556  S
O510      Zr2380   2.335       .  S
C511       C2763   1.443       .  S
C512        C871   1.496       .  S
C513        C821   1.467       .  S
C514        C841   1.487       .  S
C515        C848   1.498       .  S
C516        C828   1.491       .  S
C517        C858   1.421       .  S
C518        C878   1.502       .  S
H519        O520   0.951       .  S
O520      Zr1442   2.282   1_556  S
O520      Zr3316   2.323       .  S
H521        O522   0.960       .  S
O522       Zr975   2.304   1_556  S
C523        C534   1.549       .  S
C523        C524   1.408   1_455  A
C523        C528   1.475       .  A
C524        C525   1.386       .  A
C524        H529   1.085       .  S
C525        C928   1.510       .  S
C525        C526   1.386       .  A
C526        C527   1.410   1_655  A
C526        H530   1.085       .  S
C527        C727   1.553       .  S
C527        C528   1.485       .  A
C528        H531   1.082       .  S
O532       C2406   1.312       .  A
O532       Zr544   2.515       .  S
O533        C534   1.298       .  A
O533       Zr570   2.505       .  S
C534       O2404   1.307   1_455  A
O535       C1473   1.310       .  A
O535       Zr547   2.515   1_565  S
O536        C537   1.290       .  A
O536       Zr571   2.468       .  S
C537       O1471   1.308       .  A
C537        C648   1.531       .  S
O538       C2412   1.301       .  A
O538       Zr547   2.506       .  S
O539        C540   1.311       .  A
O539       Zr570   2.554       .  S
C540       O2410   1.301   1_455  A
C540        C639   1.555       .  S
O541       C1479   1.315   1_545  A
O541       Zr544   2.564       .  S
O542        C543   1.302       .  A
O542       Zr571   2.565       .  S
C543       O1477   1.313       .  A
C543       C1530   1.607       .  S
Zr544       O550   2.350       .  S
Zr544       O551   2.337       .  S
Zr544      O1510   2.397   1_545  S
Zr544      O2448   2.369       .  S
Zr544       O545   2.429       .  S
Zr544       O546   2.408       .  S
O545        H588   0.990       .  S
O546        H587   0.986       .  S
O546        H591   0.967       .  S
Zr547       O551   2.339       .  S
Zr547       O550   2.357       .  S
Zr547      O2447   2.380       .  S
Zr547      O1513   2.381   1_545  S
Zr547       O548   2.407       .  S
Zr547       O549   2.405       .  S
O548        H589   0.989       .  S
O548        H592   0.984       .  S
O549        H582   0.991       .  S
O550      Zr2442   2.401       .  S
O551      Zr1507   2.410   1_545  S
O551        H578   0.961       .  S
O552       C2426   1.299   1_455  A
O552       Zr564   2.516       .  S
O553        C554   1.312       .  A
O553       Zr571   2.527       .  S
C554       O2424   1.292       .  A
C554       C2475   1.554       .  S
O555       C1493   1.295       .  A
O555       Zr567   2.507       .  S
O556        C557   1.307   1_545  A
O556       Zr570   2.498       .  S
C557       O1491   1.293       .  A
C557        C630   1.543   1_565  S
O558       C2432   1.303       .  A
O558       Zr567   2.483   1_655  S
O559        C560   1.296       .  A
O559       Zr571   2.487       .  S
C560       O2430   1.303       .  A
C560        C621   1.520       .  S
O561       C1499   1.287       .  A
O561       Zr564   2.431       .  S
O562        C563   1.308       .  A
O562       Zr570   2.527       .  S
C563       O1497   1.290   1_545  A
C563        C612   1.501       .  S
Zr564       O572   2.335       .  S
Zr564       O573   2.362       .  S
Zr564      O1512   2.407       .  S
Zr564      O2446   2.374   1_455  S
Zr564       O565   2.429       .  S
Zr564       O566   2.384       .  S
O565        H585   0.986       .  S
O565        H590   0.989       .  S
O566        H586   0.983       .  S
Zr567       O573   2.362       .  S
Zr567       O572   2.358       .  S
Zr567      O2449   2.384   1_455  S
Zr567      O1511   2.372       .  S
Zr567       O568   2.432       .  S
Zr567       O569   2.356       .  S
O568        H584   0.989       .  S
O569        H583   0.986       .  S
O569        H593   0.986       .  S
Zr570      O2422   2.389   1_455  S
Zr570      O1509   2.393   1_545  S
Zr570       O575   2.390       .  S
Zr570       O576   2.411       .  S
Zr571      O1487   2.412       .  S
Zr571      O2444   2.395       .  S
Zr571       O574   2.416       .  S
Zr571       O577   2.434       .  S
O572      Zr2443   2.396   1_455  S
O572        H580   0.963       .  S
O573      Zr1506   2.392       .  S
O574      Zr1480   2.404       .  S
O574      Zr2436   2.397       .  S
O575      Zr2419   2.374   1_455  S
O575      Zr1503   2.372   1_545  S
O575        H579   0.966       .  S
O576      Zr2416   2.366   1_455  S
O576      Zr1500   2.424   1_545  S
O576        H581   0.966       .  S
O577      Zr1483   2.381       .  S
O577      Zr2439   2.385       .  S
C594       C1479   1.609   1_545  S
C594        C595   1.392       .  A
C594        C599   1.520   1_545  A
C595        C596   1.376       .  A
C595        H600   1.082       .  S
C596        C921   1.504       .  S
C596        C597   1.353       .  A
C597        C598   1.404       .  A
C597        H601   1.072       .  S
C598        C665   1.587   1_545  S
C598        C599   1.537   1_545  A
C599        H602   1.082       .  S
C603       C2426   1.573       .  S
C603        C604   1.418       .  A
C603        C608   1.478   1_655  A
C604        C605   1.410       .  A
C604        H609   1.082       .  S
C605        C911   1.526       .  S
C605        C606   1.391       .  A
C606        C607   1.412       .  A
C606        H610   1.085       .  S
C607        C721   1.548   1_655  S
C607        C608   1.473   1_655  A
C608        H611   1.081       .  S
C612        C613   1.410   1_545  A
C612        C617   1.441       .  A
C613        C614   1.388       .  A
C613        H618   1.073       .  S
C614        C901   1.518       .  S
C614        C615   1.401       .  A
C615        C616   1.414   1_565  A
C615        H619   1.085       .  S
C616        C659   1.510       .  S
C616        C617   1.443       .  A
C617        H620   1.082       .  S
C621        C622   1.406       .  A
C621        C626   1.462       .  A
C622        C623   1.383       .  A
C622        H627   1.082       .  S
C623        C888   1.525       .  S
C623        C624   1.385       .  A
C624        C625   1.406       .  A
C624        H628   1.081       .  S
C625        C741   1.530       .  S
C625        C626   1.468       .  A
C626        H629   1.082       .  S
C630        C631   1.409       .  A
C630        C635   1.465   1_545  A
C631        C632   1.386       .  A
C631        H636   1.083       .  S
C632        C881   1.525       .  S
C632        C633   1.410       .  A
C633        C634   1.416   1_545  A
C633        H637   1.083       .  S
C634       C1615   1.543       .  S
C634        C635   1.465       .  A
C635        H638   1.081       .  S
C639        C640   1.417   1_455  A
C639        C644   1.468       .  A
C640        C641   1.414       .  A
C640        H645   1.084       .  S
C641        C868   1.527       .  S
C641        C642   1.389       .  A
C642        C643   1.405   1_655  A
C642        H646   1.084       .  S
C643       C2619   1.547       .  S
C643        C644   1.469       .  A
C644        H647   1.082       .  S
C648        C649   1.407       .  A
C648        C653   1.467       .  A
C649        C650   1.385       .  A
C649        H654   1.083       .  S
C650        C861   1.514       .  S
C650        C651   1.379       .  A
C651        C652   1.404       .  A
C651        H655   1.086       .  S
C652        C685   1.524       .  S
C652        C653   1.462       .  A
C653        H656   1.083       .  S
O657       C1595   1.290       .  A
O657       Zr669   2.468       .  S
O658        C659   1.286       .  A
O658       Zr695   2.458       .  S
C659       O1593   1.292   1_545  A
O660       Zr672   2.494       .  S
O661        C662   1.294       .  A
O661       Zr696   2.515       .  S
C662        C812   1.554       .  S
O663       C1601   1.305       .  A
O663       Zr672   2.553       .  S
O664        C665   1.311   1_545  A
O664       Zr695   2.516       .  S
C665       O1599   1.305       .  A
O666       Zr669   2.470       .  S
O667        C668   1.298       .  A
O667       Zr696   2.456       .  S
Zr669       O675   2.352       .  S
Zr669       O676   2.336       .  S
Zr669      O1637   2.402       .  S
Zr669       O670   2.440       .  S
Zr669       O671   2.434       .  S
O670        H713   0.989       .  S
O671        H712   0.982       .  S
O671        H716   0.986       .  S
Zr672       O676   2.382       .  S
Zr672       O675   2.323       .  S
Zr672      O1636   2.384       .  S
Zr672       O673   2.449       .  S
Zr672       O674   2.429       .  S
O673        H714   0.987       .  S
O673        H717   0.990       .  S
O674        H707   0.988       .  S
O675      Zr1631   2.381       .  S
O676        H703   0.965       .  S
O677       C1615   1.291   1_545  A
O677       Zr689   2.455       .  S
O678        C679   1.317       .  A
O678       Zr696   2.581       .  S
C679       O1613   1.292       .  A
C679       C1570   1.544       .  S
O680       Zr692   2.512       .  S
O681        C682   1.313       .  A
O681       Zr695   2.529       .  S
C682        C799   1.558       .  S
O683       C1621   1.309   1_545  A
O683       Zr692   2.503       .  S
O684        C685   1.287       .  A
O684       Zr696   2.456       .  S
C685       O1619   1.308       .  A
O686       Zr689   2.485       .  S
O687        C688   1.291       .  A
O687       Zr695   2.499       .  S
C688        C781   1.553       .  S
Zr689       O697   2.339       .  S
Zr689       O698   2.344       .  S
Zr689      O1635   2.372   1_545  S
Zr689       O690   2.465       .  S
Zr689       O691   2.428       .  S
O690        H710   0.988       .  S
O690        H715   0.986       .  S
O691        H711   0.986       .  S
Zr692       O698   2.372       .  S
Zr692       O697   2.346       .  S
Zr692      O1638   2.368   1_545  S
Zr692       O693   2.432       .  S
Zr692       O694   2.352       .  S
O693        H709   0.989       .  S
O694        H708   0.985   1_545  S
O694        H718   0.984       .  S
Zr695      O1611   2.386   1_545  S
Zr695       O700   2.398       .  S
Zr695       O701   2.412       .  S
Zr696      O1633   2.362       .  S
Zr696       O699   2.375       .  S
Zr696       O702   2.434       .  S
O697      Zr1632   2.361   1_545  S
O697        H705   0.960       .  S
O699      Zr1625   2.373       .  S
O700      Zr1608   2.390   1_545  S
O700        H704   0.961       .  S
O701      Zr1605   2.403   1_545  S
O701        H706   0.966       .  S
O702      Zr1628   2.369       .  S
O719       C2593   1.294       .  A
O719       Zr731   2.450       .  S
O720        C721   1.309       .  A
O720       Zr757   2.551       .  S
C721       O2591   1.299   1_455  A
O722       Zr734   2.539       .  S
O723        C724   1.301       .  A
O723       Zr758   2.507       .  S
O725       C2599   1.309       .  A
O725       Zr734   2.514       .  S
O726        C727   1.294       .  A
O726       Zr757   2.500       .  S
C727       O2597   1.304   1_455  A
O728       Zr731   2.468       .  S
O729        C730   1.289       .  A
O729       Zr758   2.497       .  S
C730        C808   1.553       .  S
Zr731       O737   2.326       .  S
Zr731       O738   2.370       .  S
Zr731      O2635   2.353       .  S
Zr731       O732   2.460       .  S
Zr731       O733   2.443       .  S
O732        H775   0.988       .  S
O733        H774   0.985       .  S
O733        H778   0.988       .  S
Zr734       O738   2.344       .  S
Zr734       O737   2.340       .  S
Zr734      O2634   2.369       .  S
Zr734       O735   2.414       .  S
Zr734       O736   2.348       .  S
O735        H776   0.988       .  S
O735        H779   0.988       .  S
O736        H769   0.982       .  S
O737      Zr2629   2.366       .  S
O738        H765   0.966       .  S
O739       C2613   1.300   1_455  A
O739       Zr751   2.470       .  S
O740        C741   1.289       .  A
O740       Zr758   2.477       .  S
C741       O2611   1.300       .  A
O742       Zr754   2.468   1_554  S
O743        C744   1.315       .  A
O743       Zr757   2.563       .  S
C744        C783   1.527       .  S
O745       C2619   1.292       .  A
O745       Zr754   2.498       .  S
O746        C747   1.314       .  A
O746       Zr758   2.537       .  S
C747       O2617   1.291       .  A
C747       C2515   1.543       .  S
O748       Zr751   2.455       .  S
O749        C750   1.296       .  A
O749       Zr757   2.492       .  S
C750        C794   1.516       .  S
Zr751       O759   2.331       .  S
Zr751       O760   2.365       .  S
Zr751      O2633   2.359   1_455  S
Zr751       O752   2.442       .  S
Zr751       O753   2.417       .  S
O752        H772   0.987       .  S
O752        H777   0.988       .  S
O753        H773   0.989   1_455  S
Zr754       O760   2.362       .  S
Zr754       O759   2.343       .  S
Zr754      O2636   2.369   1_455  S
Zr754       O755   2.419       .  S
Zr754       O756   2.407       .  S
O755        H771   0.989       .  S
O756        H770   0.988       .  S
O756        H780   0.983       .  S
Zr757      O2609   2.401   1_455  S
Zr757       O762   2.404       .  S
Zr757       O763   2.432       .  S
Zr758      O2631   2.384       .  S
Zr758       O761   2.425       .  S
Zr758       O764   2.377       .  S
O759      Zr2630   2.381   1_455  S
O759        H767   0.963       .  S
O761      Zr2623   2.359       .  S
O762      Zr2606   2.375   1_455  S
O762        H766   0.964       .  S
O763      Zr2603   2.380   1_455  S
O763        H768   0.966       .  S
O764      Zr2626   2.371       .  S
C781        C782   1.464       .  A
C781        C786   1.415       .  A
C782        C783   1.466       .  A
C782        H787   1.082       .  S
C783        C784   1.408       .  A
C784        C785   1.389       .  A
C784        H788   1.083       .  S
C785        C851   1.524       .  S
C785        C786   1.415       .  A
C786        H789   1.084       .  S
C790        C791   1.415       .  A
C790        C795   1.450       .  A
C793        C794   1.422       .  A
C794        C795   1.447       .  A
C795        H798   1.082       .  S
C799        C800   1.411       .  A
C799        C804   1.476       .  A
C801        C831   1.524       .  S
C802        C803   1.413       .  A
C802        H806   1.085       .  S
C803        C804   1.475       .  A
C804        H807   1.082       .  S
C808        C809   1.414   1_556  A
C808        C813   1.481       .  A
C809        C810   1.399       .  A
C809        H814   1.085       .  S
C810        C818   1.528       .  S
C810        C811   1.398       .  A
C811        C812   1.415   1_554  A
C811        H815   1.085       .  S
C812        C813   1.480       .  A
C813        H816   1.081       .  S
C817        C818   1.388       .  A
C817        C822   1.409       .  A
C818        C819   1.389       .  A
C819        C820   1.408       .  A
C819        F826   1.343       .  S
C820        C821   1.384   1_554  A
C820        F825   1.353   1_554  S
C821        C822   1.371   1_556  A
C827        C828   1.412       .  A
C827        C832   1.409       .  A
C827        F834   1.350       .  S
C829        C830   1.408       .  A
C829        F836   1.338       .  S
C830        F835   1.345       .  S
C831        C832   1.411       .  A
C832        F833   1.356       .  S
C837        C838   1.413       .  A
C837        C842   1.411       .  A
C837        F844   1.355       .  S
C839        C840   1.389       .  A
C839        F846   1.338       .  S
C840        F845   1.350       .  S
C841        C842   1.410       .  A
C842        F843   1.348       .  S
C847        C848   1.389       .  A
C847        C852   1.401       .  A
C847        F854   1.341       .  S
C849        C850   1.432       .  A
C849        F856   1.345       .  S
C850        F855   1.355       .  S
C851        C852   1.371       .  A
C852        F853   1.327       .  S
C857       C1794   1.404       .  A
C857        C862   1.408       .  A
C857        F864   1.356       .  S
C858       C1793   1.404       .  A
C858        C859   1.360       .  A
C859        C860   1.344       .  A
C859        F866   1.368       .  S
C860        C861   1.441       .  A
C860        F865   1.337       .  S
C861       C1798   1.409       .  A
C862       C1797   1.409       .  A
C862        F863   1.357       .  S
C867       C2740   1.416       .  A
C867        C872   1.414       .  A
C867        F874   1.357       .  S
C868       C2739   1.416       .  A
C868        C869   1.391       .  A
C869        C870   1.402       .  A
C869        F876   1.347       .  S
C870        C871   1.416       .  A
C870        F875   1.347       .  S
C871       C2744   1.405       .  A
C872       C2743   1.407       .  A
C872        F873   1.348       .  S
C877       C1814   1.400       .  A
C877        C882   1.399       .  A
C877        F884   1.331       .  S
C878       C1813   1.400       .  A
C878        C879   1.416       .  A
C879        C880   1.409       .  A
C879        F886   1.355       .  S
C880        C881   1.415       .  A
C880        F885   1.356       .  S
C881       C1818   1.392       .  A
C882       C1817   1.393       .  A
C882        F883   1.348       .  S
C887       C2760   1.412       .  A
C887        C892   1.413       .  A
C887        F894   1.358       .  S
C888       C2759   1.412       .  A
C888        C889   1.439       .  A
C889        C890   1.359       .  A
C889        F896   1.338       .  S
C890        C891   1.368       .  A
C890        F895   1.365       .  S
C891       C2383   1.442       .  S
C891       C2764   1.405       .  A
C892       C2763   1.406       .  A
C892        F893   1.356       .  S
C897       C1834   1.427       .  A
C897        C902   1.426       .  A
C897        F904   1.355       .  S
C898       C1833   1.428       .  A
C898        C899   1.385       .  A
C899        C900   1.395       .  A
C899        F906   1.355       .  S
C900        C901   1.390       .  A
C900        F905   1.351       .  S
C901       C1838   1.416       .  A
C902       C1837   1.414       .  A
C902        F903   1.352       .  S
C907        C908   1.413       .  A
C907        C912   1.402       .  A
C907        F914   1.349       .  S
C908       C2353   1.516       .  S
C908       C2781   1.423       .  A
C909       C2780   1.400       .  A
C909        C910   1.411       .  A
C909        F916   1.335       .  S
C910       C2783   1.400       .  A
C910        F915   1.350       .  S
C911       C2782   1.408       .  A
C911        C912   1.382       .  A
C912        F913   1.354       .  S
C917        C918   1.377   1_545  A
C917        C922   1.379       .  A
C917        F924   1.338       .  S
C918       C1418   1.449   1_565  S
C918       C1855   1.359       .  A
C919       C1854   1.358       .  A
C919        C920   1.373       .  A
C919        F926   1.357       .  S
C920       C1857   1.464       .  A
C920        F925   1.334       .  S
C921       C1856   1.463   1_545  A
C921        C922   1.394       .  A
C922        F923   1.339       .  S
C927       C2800   1.402       .  A
C927        C932   1.401       .  A
C927        F934   1.357       .  S
C928       C2799   1.410       .  A
C928        C929   1.432       .  A
C929        C930   1.339       .  A
C929        F936   1.338   1_655  S
C930        C931   1.365       .  A
C930        F935   1.369   1_655  S
C931       C2352   1.431       .  S
C931       C2804   1.405       .  A
C932       C2803   1.409       .  A
C932        F933   1.351       .  S
O937        C948   1.284       .  A
O937      Zr1441   2.383       .  S
O938        C949   1.295       .  A
O938      Zr2844   2.488       .  S
O939        C950   1.291       .  A
O940        C951   1.286       .  A
O940      Zr2817   2.436   1_455  S
O941        C951   1.292       .  A
O941       Zr975   2.434       .  S
O942        C950   1.297       .  A
O942      Zr1442   2.481   1_565  S
O943        C949   1.282       .  A
O944        C948   1.270       .  A
O944       Zr945   2.422       .  S
Zr945      O2812   2.434       .  S
Zr945      O1882   2.326       .  S
Zr945       O947   2.286       .  S
Zr945      O2827   2.389       .  S
O946      Zr1881   2.322   1_455  S
O946       Zr972   2.311       .  S
O947      Zr1441   2.317       .  S
C948       C3271   1.431       .  S
C949       C3248   1.506       .  S
C951       C1366   1.485       .  S
H952        O953   0.956       .  S
O953      Zr2844   2.281       .  S
O953      Zr1442   2.276   1_565  S
H954        O955   0.966       .  S
O955      Zr2817   2.391   1_455  S
O955      Zr3313   2.385   1_455  S
O955       Zr975   2.375       .  S
O956        C979   1.272       .  A
O956      Zr1440   2.344       .  S
O957        C980   1.307       .  A
O957      Zr2845   2.521   1_655  S
O958        C981   1.284       .  A
O958       Zr974   2.403   1_565  S
O959        C982   1.289       .  A
O960        C983   1.280   1_554  A
O960       Zr975   2.380       .  S
O961        C984   1.282       .  A
O962        C985   1.279       .  A
O962      Zr2848   2.411       .  S
O963        C986   1.287       .  A
O964        C985   1.263       .  A
O964       Zr974   2.347       .  S
O965        C986   1.305       .  A
O965      Zr1443   2.509       .  S
O966       C1449   1.294       .  A
O966      Zr2844   2.438   1_556  S
O967        C984   1.300       .  A
O967       Zr973   2.496       .  S
O968       C1451   1.286       .  A
O968      Zr2845   2.513       .  S
O969        C982   1.293   1_554  A
O969       Zr972   2.448       .  S
O970        C979   1.296       .  A
O970       Zr976   2.457   1_565  S
O971        C980   1.296       .  A
Zr972      O2810   2.489   1_455  S
Zr972      O1424   2.347   1_554  S
Zr972      O2838   2.435   1_454  S
Zr972      O2825   2.284   1_455  S
Zr972      O3318   2.364   1_454  S
Zr972      O1458   2.348   1_554  S
Zr973      O1405   2.410       .  S
Zr973      O2829   2.506       .  S
Zr973      O2840   2.530       .  S
Zr973      O1415   2.353       .  S
Zr973      O3295   2.382       .  S
Zr973      O2849   2.283       .  S
Zr973       O988   2.261       .  S
Zr974      O1410   2.361       .  S
Zr974      O1421   2.336   1_545  S
Zr974       O978   2.333   1_545  S
Zr975      O1433   2.503   1_554  S
Zr975      O1445   2.336   1_554  S
Zr976      O2834   2.386   1_455  S
Zr976      O2850   2.339   1_445  S
Zr976       O990   2.301   1_545  S
Zr976      O1924   2.324   1_455  S
O977      Zr2845   2.306       .  S
O977      Zr1443   2.340       .  S
O978      Zr3312   2.405       .  S
O978      Zr2848   2.362   1_565  S
C979       C3231   1.441       .  S
C980       C1339   1.504       .  S
C981       O1434   1.294       .  A
C981       C1289   1.475       .  S
C982       C1309   1.489       .  S
C983       O1436   1.285       .  A
C983       C1316   1.498       .  S
C984       C1296   1.506       .  S
C985       C1326   1.406       .  S
C986       C1346   1.503       .  S
H987        O988   0.955       .  S
O988      Zr1912   2.354       .  S
H989        O990   0.960       .  S
O990      Zr1440   2.348       .  S
C991       C1002   1.544       .  S
C991        C992   1.409   1_455  A
C991        C996   1.470       .  A
C992        C993   1.387       .  A
C992        H997   1.085       .  S
C993       C1396   1.506       .  S
C993        C994   1.387       .  A
C994        C995   1.410   1_655  A
C994        H998   1.085       .  S
C995       C1195   1.546       .  S
C995        C996   1.480       .  A
C996        H999   1.082       .  S
O1000      C2874   1.306       .  A
O1000     Zr1012   2.499       .  S
O1001      C1002   1.298       .  A
O1001     Zr1038   2.502       .  S
C1002      O2872   1.307       .  A
O1003     Zr1015   2.535       .  S
O1004      C1005   1.297       .  A
O1004     Zr1039   2.495       .  S
C1005      C1116   1.551       .  S
O1006      C2880   1.302       .  A
O1006     Zr1015   2.521       .  S
O1007      C1008   1.311       .  A
O1007     Zr1038   2.560       .  S
C1008      O2878   1.301   1_455  A
C1008      C1107   1.571       .  S
O1009     Zr1012   2.510       .  S
O1010      C1011   1.327   1_565  A
O1010     Zr1039   2.594       .  S
Zr1012     O1018   2.350       .  S
Zr1012     O1019   2.346       .  S
Zr1012     O2916   2.371       .  S
Zr1012     O1013   2.421       .  S
Zr1012     O1014   2.392       .  S
O1013      H1056   0.990       .  S
O1014      H1055   0.978       .  S
O1014      H1059   0.983       .  S
Zr1015     O1019   2.332       .  S
Zr1015     O1018   2.356       .  S
Zr1015     O2915   2.383       .  S
Zr1015     O1016   2.417       .  S
Zr1015     O1017   2.378       .  S
O1016      H1057   0.989       .  S
O1016      H1060   0.986       .  S
O1017      H1050   0.990       .  S
O1018     Zr2910   2.400       .  S
O1019      H1046   0.963       .  S
O1020      C2894   1.294       .  A
O1020     Zr1032   2.502       .  S
O1021      C1022   1.330       .  A
O1021     Zr1039   2.612       .  S
C1022      O2892   1.293       .  A
C1022      C2943   1.580       .  S
O1023     Zr1035   2.503       .  S
O1024      C1025   1.316       .  A
O1024     Zr1038   2.540       .  S
C1025      C1098   1.556       .  S
O1026      C2900   1.305   1_455  A
O1026     Zr1035   2.486       .  S
O1027      C1028   1.298       .  A
O1027     Zr1039   2.492       .  S
C1028      O2898   1.305       .  A
C1028      C1089   1.529       .  S
O1029     Zr1032   2.440       .  S
O1030      C1031   1.306       .  A
O1030     Zr1038   2.519       .  S
C1031      C1080   1.502       .  S
Zr1032     O1040   2.329       .  S
Zr1032     O1041   2.365       .  S
Zr1032     O2914   2.391   1_455  S
Zr1032     O1033   2.433       .  S
Zr1032     O1034   2.379       .  S
O1033      H1053   0.987       .  S
O1033      H1058   0.989       .  S
O1034      H1054   0.978       .  S
Zr1035     O1041   2.356       .  S
Zr1035     O1040   2.342       .  S
Zr1035     O2917   2.381   1_455  S
Zr1035     O1036   2.429       .  S
Zr1035     O1037   2.351       .  S
O1036      H1052   0.988       .  S
O1037      H1051   0.987       .  S
O1037      H1061   0.986       .  S
Zr1038     O2890   2.402   1_455  S
Zr1038     O1043   2.374       .  S
Zr1038     O1044   2.416       .  S
Zr1039     O2912   2.386       .  S
Zr1039     O1042   2.376       .  S
Zr1039     O1045   2.417       .  S
O1040     Zr2911   2.387   1_455  S
O1040      H1048   0.963       .  S
O1042     Zr2904   2.395       .  S
O1043     Zr2887   2.390   1_455  S
O1043      H1047   0.966       .  S
O1044     Zr2884   2.371   1_455  S
O1044      H1049   0.966       .  S
O1045     Zr2907   2.380       .  S
C1062      C1063   1.411       .  A
C1062      C1067   1.480       .  A
C1063      C1064   1.409       .  A
C1063      H1068   1.083       .  S
C1064      C1389   1.526       .  S
C1064      C1065   1.397       .  A
C1065      C1066   1.408       .  A
C1065      H1069   1.085       .  S
C1066      C1133   1.554       .  S
C1066      C1067   1.481       .  A
C1067      H1070   1.082       .  S
C1071      C2894   1.585       .  S
C1071      C1072   1.414   1_455  A
C1071      C1076   1.485       .  A
C1072      C1073   1.415       .  A
C1072      H1077   1.083       .  S
C1073      C1379   1.527       .  S
C1073      C1074   1.389       .  A
C1074      C1075   1.408   1_655  A
C1074      H1078   1.083       .  S
C1075      C1189   1.555       .  S
C1075      C1076   1.482       .  A
C1076      H1079   1.080       .  S
C1080      C1081   1.408       .  A
C1080      C1085   1.442       .  A
C1081      C1082   1.387       .  A
C1081      H1086   1.073       .  S
C1082      C1369   1.516       .  S
C1082      C1083   1.401       .  A
C1083      C1084   1.415       .  A
C1083      H1087   1.085       .  S
C1084      C1127   1.511       .  S
C1084      C1085   1.444       .  A
C1085      H1088   1.082       .  S
C1089      C1090   1.409       .  A
C1089      C1094   1.466       .  A
C1090      C1091   1.382       .  A
C1090      H1095   1.084       .  S
C1091      C1356   1.522       .  S
C1091      C1092   1.384       .  A
C1092      C1093   1.407       .  A
C1092      H1096   1.081       .  S
C1093      C1209   1.536       .  S
C1093      C1094   1.474       .  A
C1094      H1097   1.082       .  S
C1098      C1099   1.403       .  A
C1098      C1103   1.474       .  A
C1099      C1100   1.387       .  A
C1099      H1104   1.083       .  S
C1100      C1349   1.525       .  S
C1100      C1101   1.415       .  A
C1101      C1102   1.418       .  A
C1101      H1105   1.082       .  S
C1102      C1103   1.474       .  A
C1103      H1106   1.080       .  S
C1107      C1108   1.420   1_455  A
C1107      C1112   1.476       .  A
C1108      C1109   1.421       .  A
C1108      H1113   1.084       .  S
C1109      C1336   1.532       .  S
C1109      C1110   1.388       .  A
C1110      C1111   1.404   1_655  A
C1110      H1114   1.083       .  S
C1111      C3087   1.562       .  S
C1111      C1112   1.477       .  A
C1112      H1115   1.082       .  S
C1116      C1117   1.408   1_565  A
C1116      C1121   1.474       .  A
C1117      C1118   1.389       .  A
C1117      H1122   1.084       .  S
C1118      C1329   1.495       .  S
C1118      C1119   1.380       .  A
C1119      C1120   1.401   1_545  A
C1119      H1123   1.086       .  S
C1120      C1153   1.547       .  S
C1120      C1121   1.483       .  A
C1121      H1124   1.083       .  S
O1125     Zr1137   2.466       .  S
O1126      C1127   1.289       .  A
O1126     Zr1163   2.469       .  S
O1128      C1598   1.293       .  A
O1128     Zr1140   2.522   1_556  S
O1129      C1130   1.292       .  A
O1129     Zr1164   2.492       .  S
C1130      O1596   1.297       .  A
C1130      C1280   1.533       .  S
O1131     Zr1140   2.510       .  S
O1132      C1133   1.309       .  A
O1132     Zr1163   2.547       .  S
O1134      C1604   1.293   1_554  A
O1134     Zr1137   2.489       .  S
O1135      C1136   1.298       .  A
O1135     Zr1164   2.456       .  S
C1136      O1602   1.294       .  A
C1136      C1726   1.523       .  S
Zr1137     O1143   2.376       .  S
Zr1137     O1144   2.352       .  S
Zr1137     O1635   2.367   1_554  S
Zr1137     O1138   2.443       .  S
Zr1137     O1139   2.432       .  S
O1138      H1181   0.990       .  S
O1139      H1180   0.984       .  S
O1139      H1184   0.986       .  S
Zr1140     O1144   2.368       .  S
Zr1140     O1143   2.337       .  S
Zr1140     O1638   2.400   1_554  S
Zr1140     O1141   2.436       .  S
Zr1140     O1142   2.433       .  S
O1141      H1182   0.989       .  S
O1141      H1185   0.983       .  S
O1142      H1175   0.988       .  S
O1144     Zr1632   2.408   1_554  S
O1144      H1171   0.965       .  S
O1145     Zr1157   2.460       .  S
O1146      C1147   1.322       .  A
O1146     Zr1164   2.608       .  S
O1148      C1618   1.293       .  A
O1148     Zr1160   2.500       .  S
O1149      C1150   1.305   1_554  A
O1149     Zr1163   2.495       .  S
C1150      O1616   1.297       .  A
C1150      C1267   1.546   1_556  S
O1151     Zr1160   2.545       .  S
O1152      C1153   1.288       .  A
O1152     Zr1164   2.464       .  S
O1154      C1624   1.294       .  A
O1154     Zr1157   2.521       .  S
O1155      C1156   1.292       .  A
O1155     Zr1163   2.498       .  S
C1156      O1622   1.287   1_554  A
C1156      C1249   1.542       .  S
Zr1157     O1165   2.359       .  S
Zr1157     O1166   2.351       .  S
Zr1157     O1637   2.363       .  S
Zr1157     O1158   2.430       .  S
Zr1157     O1159   2.436       .  S
O1158      H1178   0.988       .  S
O1158      H1183   0.986       .  S
O1159      H1179   0.985       .  S
Zr1160     O1166   2.396       .  S
Zr1160     O1165   2.355       .  S
Zr1160     O1636   2.410       .  S
Zr1160     O1161   2.428       .  S
Zr1160     O1162   2.406       .  S
O1161      H1177   0.989       .  S
O1162      H1176   0.988       .  S
O1162      H1186   0.989       .  S
Zr1163     O1634   2.395   1_554  S
Zr1163     O1168   2.370       .  S
Zr1163     O1169   2.433       .  S
Zr1164     O1612   2.424       .  S
Zr1164     O1167   2.364       .  S
Zr1164     O1170   2.445       .  S
O1165      H1173   0.960       .  S
O1166     Zr1631   2.394       .  S
O1167     Zr1605   2.369       .  S
O1168     Zr1628   2.367   1_554  S
O1168      H1172   0.963       .  S
O1169     Zr1625   2.370   1_554  S
O1169      H1174   0.966       .  S
O1170     Zr1608   2.431       .  S
O1187      C3061   1.303       .  A
O1187     Zr1199   2.497       .  S
O1188      C1189   1.311       .  A
O1188     Zr1225   2.557       .  S
C1189      O3059   1.303   1_455  A
O1190      C1660   1.305   1_554  A
O1190     Zr1202   2.520       .  S
O1191      C1192   1.301       .  A
O1191     Zr1226   2.521       .  S
C1192      O1658   1.308       .  A
C1192      C1739   1.560       .  S
O1193      C3067   1.305       .  A
O1193     Zr1202   2.489       .  S
O1194      C1195   1.292       .  A
O1194     Zr1225   2.488       .  S
C1195      O3065   1.305       .  A
O1196      C1666   1.296       .  A
O1196     Zr1199   2.536   1_556  S
O1197      C1198   1.287       .  A
O1197     Zr1226   2.513       .  S
C1198      O1664   1.278       .  A
C1198      C1276   1.536       .  S
Zr1199     O1205   2.335       .  S
Zr1199     O1206   2.373       .  S
Zr1199     O1697   2.378   1_554  S
Zr1199     O3103   2.369       .  S
Zr1199     O1200   2.447       .  S
Zr1199     O1201   2.438       .  S
O1200      H1243   0.989       .  S
O1201      H1242   0.987       .  S
O1201      H1246   0.973       .  S
Zr1202     O1206   2.360       .  S
Zr1202     O1205   2.345       .  S
Zr1202     O3102   2.380       .  S
Zr1202     O1700   2.368   1_554  S
Zr1202     O1203   2.422       .  S
Zr1202     O1204   2.403       .  S
O1203      H1244   0.988       .  S
O1203      H1247   0.986       .  S
O1204      H1237   0.988       .  S
O1205     Zr3097   2.373       .  S
O1206     Zr1694   2.427   1_554  S
O1206      H1233   0.966       .  S
O1207      C3081   1.299   1_455  A
O1207     Zr1219   2.466       .  S
O1208      C1209   1.290       .  A
O1208     Zr1226   2.484       .  S
C1209      O3079   1.300       .  A
O1210      C1680   1.295       .  A
O1210     Zr1222   2.462       .  S
O1211      C1212   1.303       .  A
O1211     Zr1225   2.510       .  S
C1212      O1678   1.295       .  A
C1212      C1251   1.508       .  S
O1213      C3087   1.288       .  A
O1213     Zr1222   2.499       .  S
O1214      C1215   1.315       .  A
O1214     Zr1226   2.546       .  S
C1215      O3085   1.291       .  A
C1215      C2983   1.562       .  S
O1216      C1686   1.292       .  A
O1216     Zr1219   2.451       .  S
O1217      C1218   1.297       .  A
O1217     Zr1225   2.497       .  S
C1218      O1684   1.292   1_554  A
C1218      C1262   1.518   1_554  S
Zr1219     O1227   2.338       .  S
Zr1219     O1228   2.373       .  S
Zr1219     O1699   2.363       .  S
Zr1219     O3101   2.357   1_455  S
Zr1219     O1220   2.442       .  S
Zr1219     O1221   2.421       .  S
O1220      H1240   0.987       .  S
O1220      H1245   0.988       .  S
O1221      H1241   0.989   1_455  S
Zr1222     O1228   2.372       .  S
Zr1222     O1227   2.347       .  S
Zr1222     O3104   2.366   1_455  S
Zr1222     O1698   2.375       .  S
Zr1222     O1223   2.407       .  S
Zr1222     O1224   2.413       .  S
O1223      H1239   0.990       .  S
O1224      H1238   0.989       .  S
O1224      H1248   0.987   1_455  S
Zr1225     O3077   2.374   1_455  S
Zr1225     O1696   2.405   1_554  S
Zr1225     O1230   2.424       .  S
Zr1225     O1231   2.389       .  S
Zr1226     O1674   2.437       .  S
Zr1226     O3099   2.391       .  S
Zr1226     O1229   2.441       .  S
Zr1226     O1232   2.391       .  S
O1227     Zr3098   2.381   1_455  S
O1227      H1235   0.963       .  S
O1228     Zr1693   2.409       .  S
O1229     Zr1667   2.374       .  S
O1229     Zr3091   2.361       .  S
O1230     Zr3074   2.380   1_455  S
O1230     Zr1690   2.392   1_554  S
O1230      H1234   0.964       .  S
O1231     Zr3071   2.367   1_455  S
O1231     Zr1687   2.365   1_554  S
O1231      H1236   0.962       .  S
O1232     Zr1670   2.384       .  S
O1232     Zr3094   2.373       .  S
C1249      C1250   1.454       .  A
C1249      C1254   1.422   1_554  A
C1250      C1251   1.455       .  A
C1250      H1255   1.082       .  S
C1251      C1252   1.406   1_554  A
C1252      C1253   1.383       .  A
C1252      H1256   1.082       .  S
C1253      C1319   1.526       .  S
C1253      C1254   1.420       .  A
C1254      H1257   1.084       .  S
C1258      C1604   1.523       .  S
C1258      C1259   1.417       .  A
C1258      C1263   1.454   1_556  A
C1259      C1728   1.386       .  A
C1259      H1732   1.082       .  S
C1260      C1774   1.527       .  S
C1260      C1727   1.387       .  A
C1260      C1729   1.398       .  A
C1261      C1728   1.399       .  A
C1261      C1262   1.421       .  A
C1261      H1733   1.084       .  S
C1262      C1263   1.453   1_556  A
C1263      H1266   1.082       .  S
H1264      C1727   1.082       .  S
H1265      C1729   1.084       .  S
C1267      C1268   1.412       .  A
C1267      C1272   1.462   1_554  A
C1268      C1737   1.393       .  A
C1268      H1741   1.083       .  S
C1269      C1299   1.524       .  S
C1269      C1736   1.391       .  A
C1269      C1738   1.406       .  A
C1270      C1737   1.405       .  A
C1270      C1271   1.410       .  A
C1270      H1274   1.084       .  S
C1271      C1660   1.537   1_554  S
C1271      C1272   1.463   1_554  A
C1272      H1275   1.082       .  S
H1273      C1736   1.083       .  S
C1276      C1277   1.422       .  A
C1276      C1281   1.471       .  A
C1277      C1278   1.395       .  A
C1277      H1282   1.084       .  S
C1278      C1286   1.531       .  S
C1278      C1279   1.386       .  A
C1279      C1280   1.413       .  A
C1279      H1283   1.079       .  S
C1280      C1281   1.470       .  A
C1281      H1284   1.081       .  S
C1285      C1286   1.385       .  A
C1285      C1290   1.394       .  A
C1285      F1760   1.328       .  S
C1286      C1287   1.393       .  A
C1287      C1288   1.409       .  A
C1287      F1294   1.344       .  S
C1288      C1289   1.400       .  A
C1288      F1293   1.348       .  S
C1289      C1290   1.384       .  A
C1290      F1759   1.354       .  S
F1291      C1758   1.349   1_556  S
F1292      C1753   1.336       .  S
C1295      C1296   1.420       .  A
C1295      C1300   1.415       .  A
C1295      F1302   1.353       .  S
C1296      C1765   1.410       .  A
C1297      C1764   1.414       .  A
C1297      C1298   1.406       .  A
C1297      F1304   1.349       .  S
C1298      C1767   1.397       .  A
C1298      F1303   1.351       .  S
C1299      C1766   1.385       .  A
C1299      C1300   1.404       .  A
C1300      F1301   1.354       .  S
C1305      C1306   1.410       .  A
C1305      C1310   1.412       .  A
C1305      F1312   1.353       .  S
C1306      C1728   1.527       .  S
C1306      C1775   1.395       .  A
C1307      C1774   1.396       .  A
C1307      C1308   1.390       .  A
C1307      F1314   1.340       .  S
C1308      C1777   1.403       .  A
C1308      F1313   1.350       .  S
C1309      C1776   1.402       .  A
C1309      C1310   1.414       .  A
C1310      F1311   1.349       .  S
C1315      C1316   1.392       .  A
C1315      C1320   1.395       .  A
C1315      F1322   1.348   1_556  S
C1316      C1785   1.421       .  A
C1317      C1784   1.408       .  A
C1317      C1318   1.429       .  A
C1317      F1324   1.337       .  S
C1318      C1787   1.405       .  A
C1318      F1323   1.354       .  S
C1319      C1786   1.411       .  A
C1319      C1320   1.365       .  A
C1320      F1321   1.321       .  S
C1325      C1330   1.405       .  A
C1325      F1332   1.356       .  S
C1326      C1327   1.364       .  A
C1327      C1328   1.330       .  A
C1327      F1334   1.369   1_545  S
C1328      C1329   1.432       .  A
C1328      F1333   1.342   1_545  S
C1330      F1331   1.357       .  S
C1335      C3208   1.420       .  A
C1335      C1340   1.417       .  A
C1335      F1342   1.356       .  S
C1336      C3207   1.422       .  A
C1336      C1337   1.389       .  A
C1337      C1338   1.404       .  A
C1337      F1344   1.350       .  S
C1338      C1339   1.419       .  A
C1338      F1343   1.340       .  S
C1339      C3212   1.405       .  A
C1340      C3211   1.407       .  A
C1340      F1341   1.352       .  S
C1345      C1350   1.398       .  A
C1345      F1352   1.333       .  S
C1346      C1347   1.418       .  A
C1347      C1348   1.409       .  A
C1347      F1354   1.354       .  S
C1348      C1349   1.414       .  A
C1348      F1353   1.357       .  S
C1350      F1351   1.348       .  S
C1355      C3228   1.411       .  A
C1355      C1360   1.413       .  A
C1355      F1362   1.358       .  S
C1356      C3227   1.411       .  A
C1356      C1357   1.436       .  A
C1357      C1358   1.359       .  A
C1357      F1364   1.339       .  S
C1358      C1359   1.369       .  A
C1358      F1363   1.365       .  S
C1359      C2851   1.442       .  S
C1359      C3232   1.406       .  A
C1360      C3231   1.406       .  A
C1360      F1361   1.356       .  S
C1365      C1370   1.429       .  A
C1365      F1372   1.353       .  S
C1366      C1367   1.388       .  A
C1367      C1368   1.393       .  A
C1367      F1374   1.355       .  S
C1368      C1369   1.392       .  A
C1368      F1373   1.352       .  S
C1370      F1371   1.354       .  S
C1375      C1376   1.398       .  A
C1375      C1380   1.408       .  A
C1375      F1382   1.331       .  S
C1376      C2821   1.505       .  S
C1376      C3249   1.398       .  A
C1377      C3248   1.398       .  A
C1377      C1378   1.421       .  A
C1377      F1384   1.335       .  S
C1378      C3251   1.413       .  A
C1378      F1383   1.352       .  S
C1379      C3250   1.414       .  A
C1379      C1380   1.386       .  A
C1380      F1381   1.348       .  S
C1385      C1386   1.400       .  A
C1385      C1390   1.413       .  A
C1385      F1392   1.341       .  S
C1387      C1388   1.410       .  A
C1387      F1394   1.333       .  S
C1388      F1393   1.352       .  S
C1389      C1390   1.397       .  A
C1390      F1391   1.356       .  S
C1395      C3268   1.411       .  A
C1395      C1400   1.414       .  A
C1395      F1402   1.357       .  S
C1396      C3267   1.411       .  A
C1396      C1397   1.429       .  A
C1397      C1398   1.337       .  A
C1397      F1404   1.337   1_655  S
C1398      C1399   1.369       .  A
C1398      F1403   1.369   1_655  S
C1399      C2820   1.430       .  S
C1399      C3272   1.405       .  A
C1400      C3271   1.405       .  A
C1400      F1401   1.356       .  S
O1405      C1416   1.279       .  A
O1406      C1417   1.303       .  A
O1406     Zr3312   2.501       .  S
O1407      C1418   1.246       .  A
O1408      C1419   1.272       .  A
O1408     Zr3285   2.361       .  S
O1409      C1419   1.303       .  A
O1409     Zr1443   2.488       .  S
O1410      C1418   1.255       .  A
O1411      C1417   1.279       .  A
O1412      C1416   1.263       .  A
O1412     Zr1413   2.347       .  S
Zr1413     O3280   2.372       .  S
Zr1413     O2350   2.279       .  S
Zr1413     O1415   2.337       .  S
Zr1413     O3295   2.359       .  S
O1414     Zr2349   2.327   1_455  S
O1414     Zr1440   2.313       .  S
C1416      C3739   1.423       .  S
C1417      C3716   1.505       .  S
C1419      C1834   1.485       .  S
H1420      O1421   0.962       .  S
O1421     Zr3312   2.293       .  S
H1422      O1423   0.966       .  S
O1423     Zr3285   2.384       .  S
O1423     Zr2845   2.391       .  S
O1423     Zr1443   2.347       .  S
O1424      C1447   1.273       .  A
O1425      C1448   1.302       .  A
O1425     Zr3313   2.507   1_556  S
O1426      C1449   1.282       .  A
O1426     Zr1442   2.372   1_566  S
O1427      C1450   1.290       .  A
O1428      C1451   1.285       .  A
O1428     Zr1443   2.406       .  S
O1429      C1452   1.295       .  A
O1430      C1453   1.277       .  A
O1430     Zr3316   2.378       .  S
O1431      C1454   1.283       .  A
O1432      C1453   1.276       .  A
O1432     Zr1442   2.380   1_556  S
O1433      C1454   1.304       .  A
O1434     Zr3312   2.435       .  S
O1435      C1452   1.296       .  A
O1435     Zr1441   2.443       .  S
O1436     Zr3313   2.478   1_456  S
O1437      C1450   1.292       .  A
O1437     Zr1440   2.445       .  S
O1438      C1447   1.295       .  A
O1438     Zr1444   2.455   1_565  S
O1439      C1448   1.289       .  A
Zr1440     O3278   2.489   1_455  S
Zr1440     O3306   2.434   1_455  S
Zr1440     O3293   2.281   1_455  S
Zr1440     O2850   2.365   1_455  S
Zr1441     O3297   2.506   1_554  S
Zr1441     O3308   2.479   1_554  S
Zr1441     O2827   2.385       .  S
Zr1441     O3317   2.310   1_554  S
Zr1441     O1456   2.263   1_554  S
Zr1442     O1446   2.369   1_544  S
Zr1444     O3302   2.381   1_455  S
Zr1444     O3318   2.332   1_445  S
Zr1444     O1458   2.297   1_545  S
Zr1444     O2392   2.321   1_455  S
O1445     Zr3313   2.310   1_456  S
O1446     Zr2844   2.365   1_556  S
O1446     Zr3316   2.336   1_565  S
C1447      C3699   1.440       .  S
C1448      C1807   1.497       .  S
C1449      C1757   1.468       .  S
C1450      C1777   1.490       .  S
C1451      C1784   1.508       .  S
C1452      C1764   1.491       .  S
C1453      C1794   1.418       .  S
C1454      C1814   1.502       .  S
H1455      O1456   0.952       .  S
O1456     Zr2380   2.324       .  S
H1457      O1458   0.960       .  S
C1459      C1470   1.558       .  S
C1459      C1460   1.405   1_455  A
C1459      C1464   1.484       .  A
C1460      C1461   1.381       .  A
C1460      H1465   1.085       .  S
C1461      C1864   1.518       .  S
C1461      C1462   1.380       .  A
C1462      C1463   1.405   1_655  A
C1462      H1466   1.084       .  S
C1463      C1663   1.562       .  S
C1463      C1464   1.494       .  A
C1464      H1467   1.083       .  S
O1468      C3342   1.313       .  A
O1468     Zr1480   2.525       .  S
O1469      C1470   1.297       .  A
O1469     Zr1506   2.512       .  S
C1470      O3340   1.307   1_455  A
O1471     Zr1483   2.506       .  S
O1472      C1473   1.290       .  A
O1472     Zr1507   2.467       .  S
C1473      C1584   1.532       .  S
O1474      C3348   1.301       .  A
O1474     Zr1483   2.504       .  S
O1475      C1476   1.309       .  A
O1475     Zr1506   2.541       .  S
C1476      O3346   1.301   1_455  A
C1476      C1575   1.550       .  S
O1477     Zr1480   2.554       .  S
O1478      C1479   1.301       .  A
O1478     Zr1507   2.561       .  S
Zr1480     O1486   2.353       .  S
Zr1480     O1487   2.337       .  S
Zr1480     O3384   2.371       .  S
Zr1480     O1481   2.428       .  S
Zr1480     O1482   2.405       .  S
O1481      H1524   0.990       .  S
O1482      H1523   0.982       .  S
O1482      H1527   0.983       .  S
Zr1483     O1487   2.338       .  S
Zr1483     O1486   2.357       .  S
Zr1483     O3383   2.376       .  S
Zr1483     O1484   2.411       .  S
Zr1483     O1485   2.402       .  S
O1484      H1525   0.989       .  S
O1484      H1528   0.985       .  S
O1485      H1518   0.990       .  S
O1486     Zr3378   2.399       .  S
O1487      H1514   0.961       .  S
O1488      C3362   1.293       .  A
O1488     Zr1500   2.502       .  S
O1489      C1490   1.311       .  A
O1489     Zr1507   2.520       .  S
C1490      O3360   1.292       .  A
C1490      C3411   1.550       .  S
O1491     Zr1503   2.500       .  S
O1492      C1493   1.307       .  A
O1492     Zr1506   2.498       .  S
C1493      C1566   1.545       .  S
O1494      C3368   1.305       .  A
O1494     Zr1503   2.488   1_655  S
O1495      C1496   1.295       .  A
O1495     Zr1507   2.486       .  S
C1496      O3366   1.303       .  A
C1496      C1557   1.521       .  S
O1497     Zr1500   2.436       .  S
O1498      C1499   1.310       .  A
O1498     Zr1506   2.541       .  S
C1499      C1548   1.511       .  S
Zr1500     O1508   2.328       .  S
Zr1500     O1509   2.365       .  S
Zr1500     O3382   2.388   1_455  S
Zr1500     O1501   2.434       .  S
Zr1500     O1502   2.387       .  S
O1501      H1521   0.986       .  S
O1501      H1526   0.989       .  S
O1502      H1522   0.980       .  S
Zr1503     O1509   2.355       .  S
Zr1503     O1508   2.343       .  S
Zr1503     O3385   2.378   1_455  S
Zr1503     O1504   2.430       .  S
Zr1503     O1505   2.358       .  S
O1504      H1520   0.988       .  S
O1505      H1519   0.986   1_455  S
O1505      H1529   0.986       .  S
Zr1506     O3358   2.401   1_455  S
Zr1506     O1511   2.394       .  S
Zr1506     O1512   2.399       .  S
Zr1507     O3380   2.396       .  S
Zr1507     O1510   2.412       .  S
Zr1507     O1513   2.434       .  S
O1508     Zr3379   2.381   1_455  S
O1508      H1516   0.963       .  S
O1510     Zr3372   2.397       .  S
O1511     Zr3355   2.377   1_455  S
O1511      H1515   0.966       .  S
O1512     Zr3352   2.371   1_455  S
O1512      H1517   0.966       .  S
O1513     Zr3375   2.385       .  S
C1530      C1531   1.394       .  A
C1530      C1535   1.517       .  A
C1531      C1532   1.375       .  A
C1531      H1536   1.081       .  S
C1532      C1857   1.503       .  S
C1532      C1533   1.359       .  A
C1533      C1534   1.406       .  A
C1533      H1537   1.071       .  S
C1534      C1601   1.584       .  S
C1534      C1535   1.533       .  A
C1535      H1538   1.082       .  S
C1539      C3362   1.586       .  S
C1539      C1540   1.414   1_455  A
C1539      C1544   1.485       .  A
C1540      C1541   1.415       .  A
C1540      H1545   1.083       .  S
C1541      C1847   1.527       .  S
C1541      C1542   1.389       .  A
C1542      C1543   1.408   1_655  A
C1542      H1546   1.083       .  S
C1543      C1657   1.555       .  S
C1543      C1544   1.483       .  A
C1544      H1547   1.081       .  S
C1548      C1549   1.412       .  A
C1548      C1553   1.449       .  A
C1549      C1550   1.388       .  A
C1549      H1554   1.075       .  S
C1550      C1837   1.519       .  S
C1550      C1551   1.398       .  A
C1551      C1552   1.413       .  A
C1551      H1555   1.084       .  S
C1552      C1595   1.520       .  S
C1552      C1553   1.450       .  A
C1553      H1556   1.082       .  S
C1557      C1558   1.407       .  A
C1557      C1562   1.463       .  A
C1558      C1559   1.382       .  A
C1558      H1563   1.083       .  S
C1559      C1824   1.528       .  S
C1559      C1560   1.385       .  A
C1560      C1561   1.406       .  A
C1560      H1564   1.081       .  S
C1561      C1677   1.531       .  S
C1561      C1562   1.469       .  A
C1562      H1565   1.083       .  S
C1566      C1567   1.409       .  A
C1566      C1571   1.466       .  A
C1567      C1568   1.387       .  A
C1567      H1572   1.083       .  S
C1568      C1817   1.524       .  S
C1568      C1569   1.409       .  A
C1569      C1570   1.415       .  A
C1569      H1573   1.083       .  S
C1570      C1571   1.466       .  A
C1571      H1574   1.081       .  S
C1575      C1576   1.416   1_455  A
C1575      C1580   1.465       .  A
C1576      C1577   1.415       .  A
C1576      H1581   1.084       .  S
C1577      C1804   1.527       .  S
C1577      C1578   1.388       .  A
C1578      C1579   1.405   1_655  A
C1578      H1582   1.084       .  S
C1579      C3555   1.542       .  S
C1579      C1580   1.466       .  A
C1580      H1583   1.082       .  S
C1584      C1585   1.407   1_565  A
C1584      C1589   1.466       .  A
C1585      C1586   1.384       .  A
C1585      H1590   1.083       .  S
C1586      C1797   1.511       .  S
C1586      C1587   1.379       .  A
C1587      C1588   1.404   1_545  A
C1587      H1591   1.086       .  S
C1588      C1621   1.526       .  S
C1588      C1589   1.464       .  A
C1589      H1592   1.083       .  S
O1593     Zr1605   2.470       .  S
O1594      C1595   1.290       .  A
O1594     Zr1631   2.480       .  S
O1596     Zr1608   2.499       .  S
O1597      C1598   1.294       .  A
O1597     Zr1632   2.516       .  S
C1598      C1748   1.555       .  S
O1599     Zr1608   2.553       .  S
O1600      C1601   1.311       .  A
O1600     Zr1631   2.515       .  S
O1602     Zr1605   2.489       .  S
O1603      C1604   1.297       .  A
O1603     Zr1632   2.454       .  S
Zr1605     O1611   2.354       .  S
Zr1605     O1612   2.339       .  S
Zr1605     O1606   2.441       .  S
Zr1605     O1607   2.430       .  S
O1606      H1649   0.990       .  S
O1607      H1648   0.984       .  S
O1607      H1652   0.986       .  S
Zr1608     O1612   2.383       .  S
Zr1608     O1611   2.325       .  S
Zr1608     O1609   2.450       .  S
Zr1608     O1610   2.425       .  S
O1609      H1650   0.987       .  S
O1609      H1653   0.990       .  S
O1610      H1643   0.985       .  S
O1612      H1639   0.965       .  S
O1613     Zr1625   2.458       .  S
O1614      C1615   1.317       .  A
O1614     Zr1632   2.584       .  S
O1616     Zr1628   2.513       .  S
O1617      C1618   1.315       .  A
O1617     Zr1631   2.540       .  S
C1618      C1735   1.562       .  S
O1619     Zr1628   2.500       .  S
O1620      C1621   1.287       .  A
O1620     Zr1632   2.456       .  S
O1622     Zr1625   2.487       .  S
O1623      C1624   1.287       .  A
O1623     Zr1631   2.470       .  S
C1624      C1717   1.536       .  S
Zr1625     O1633   2.340       .  S
Zr1625     O1634   2.345       .  S
Zr1625     O1626   2.464       .  S
Zr1625     O1627   2.428       .  S
O1626      H1646   0.988       .  S
O1626      H1651   0.987       .  S
O1627      H1647   0.986       .  S
Zr1628     O1634   2.370       .  S
Zr1628     O1633   2.347       .  S
Zr1628     O1629   2.431       .  S
Zr1628     O1630   2.350       .  S
O1629      H1645   0.989       .  S
O1630      H1644   0.985       .  S
O1630      H1654   0.984       .  S
Zr1631     O1636   2.396       .  S
Zr1631     O1637   2.421       .  S
Zr1632     O1635   2.377       .  S
Zr1632     O1638   2.433       .  S
O1633      H1641   0.960       .  S
O1636      H1640   0.962       .  S
O1637      H1642   0.966       .  S
O1655      C3529   1.292       .  A
O1655     Zr1667   2.443       .  S
O1656      C1657   1.311       .  A
O1656     Zr1693   2.555       .  S
C1657      O3527   1.304   1_455  A
O1658     Zr1670   2.547       .  S
O1659      C1660   1.301       .  A
O1659     Zr1694   2.506       .  S
O1661      C3535   1.310       .  A
O1661     Zr1670   2.516       .  S
O1662      C1663   1.297       .  A
O1662     Zr1693   2.515       .  S
C1663      O3533   1.306   1_455  A
O1664     Zr1667   2.469       .  S
O1665      C1666   1.289       .  A
O1665     Zr1694   2.498       .  S
C1666      C1744   1.554       .  S
Zr1667     O1673   2.331       .  S
Zr1667     O1674   2.369       .  S
Zr1667     O3571   2.357       .  S
Zr1667     O1668   2.458       .  S
Zr1667     O1669   2.447       .  S
O1668      H1711   0.988       .  S
O1669      H1710   0.985       .  S
O1669      H1714   0.989       .  S
Zr1670     O1674   2.350       .  S
Zr1670     O1673   2.346       .  S
Zr1670     O3570   2.371       .  S
Zr1670     O1671   2.416       .  S
Zr1670     O1672   2.365       .  S
O1671      H1712   0.988       .  S
O1671      H1715   0.988       .  S
O1672      H1705   0.984       .  S
O1673     Zr3565   2.372       .  S
O1674      H1701   0.966       .  S
O1675      C3549   1.300   1_455  A
O1675     Zr1687   2.468       .  S
O1676      C1677   1.289       .  A
O1676     Zr1694   2.479       .  S
C1677      O3547   1.299       .  A
O1678     Zr1690   2.466   1_554  S
O1679      C1680   1.306       .  A
O1679     Zr1693   2.519       .  S
C1680      C1719   1.509       .  S
O1681      C3555   1.291       .  A
O1681     Zr1690   2.491       .  S
O1682      C1683   1.313       .  A
O1682     Zr1694   2.535       .  S
C1683      O3553   1.292       .  A
C1683      C3451   1.545       .  S
O1684     Zr1687   2.455       .  S
O1685      C1686   1.297       .  A
O1685     Zr1693   2.499       .  S
C1686      C1730   1.517       .  S
Zr1687     O1695   2.334       .  S
Zr1687     O1696   2.366       .  S
Zr1687     O3569   2.359   1_455  S
Zr1687     O1688   2.443       .  S
Zr1687     O1689   2.419       .  S
O1688      H1708   0.987       .  S
O1688      H1713   0.988       .  S
O1689      H1709   0.989   1_455  S
Zr1690     O1696   2.361       .  S
Zr1690     O1695   2.346       .  S
Zr1690     O3572   2.370   1_455  S
Zr1690     O1691   2.419       .  S
Zr1690     O1692   2.406       .  S
O1691      H1707   0.989       .  S
O1692      H1706   0.987       .  S
O1692      H1716   0.983       .  S
Zr1693     O3545   2.373   1_455  S
Zr1693     O1698   2.406       .  S
Zr1693     O1699   2.392       .  S
Zr1694     O3567   2.383       .  S
Zr1694     O1697   2.424       .  S
Zr1694     O1700   2.378       .  S
O1695     Zr3566   2.382   1_455  S
O1695      H1703   0.963       .  S
O1697     Zr3559   2.360       .  S
O1698     Zr3542   2.371   1_455  S
O1698      H1702   0.963       .  S
O1699     Zr3539   2.366   1_455  S
O1699      H1704   0.962       .  S
O1700     Zr3562   2.370       .  S
C1717      C1718   1.452       .  A
C1717      C1722   1.413       .  A
C1718      C1719   1.453       .  A
C1718      H1723   1.082       .  S
C1719      C1720   1.407       .  A
C1720      C1721   1.390       .  A
C1720      H1724   1.086       .  S
C1721      C1787   1.524       .  S
C1721      C1722   1.415       .  A
C1722      H1725   1.084       .  S
C1726      C1727   1.417       .  A
C1726      C1731   1.453       .  A
C1729      C1730   1.421       .  A
C1730      C1731   1.453       .  A
C1731      H1734   1.082       .  S
C1735      C1736   1.411       .  A
C1735      C1740   1.479       .  A
C1737      C1767   1.524       .  S
C1738      C1739   1.412       .  A
C1738      H1742   1.084       .  S
C1739      C1740   1.478       .  A
C1740      H1743   1.082       .  S
C1744      C1745   1.414   1_556  A
C1744      C1749   1.482       .  A
C1745      C1746   1.398       .  A
C1745      H1750   1.085       .  S
C1746      C1754   1.528       .  S
C1746      C1747   1.398       .  A
C1747      C1748   1.415   1_554  A
C1747      H1751   1.085       .  S
C1748      C1749   1.481       .  A
C1749      H1752   1.081       .  S
C1753      C1754   1.388       .  A
C1753      C1758   1.408       .  A
C1754      C1755   1.388       .  A
C1755      C1756   1.408       .  A
C1755      F1762   1.343       .  S
C1756      C1757   1.385   1_554  A
C1756      F1761   1.353   1_554  S
C1757      C1758   1.372   1_556  A
C1763      C1764   1.411       .  A
C1763      C1768   1.408       .  A
C1763      F1770   1.350       .  S
C1765      C1766   1.406       .  A
C1765      F1772   1.338       .  S
C1766      F1771   1.344       .  S
C1767      C1768   1.411       .  A
C1768      F1769   1.356       .  S
C1773      C1774   1.410       .  A
C1773      C1778   1.410       .  A
C1773      F1780   1.354       .  S
C1775      C1776   1.389       .  A
C1775      F1782   1.339       .  S
C1776      F1781   1.350       .  S
C1777      C1778   1.413       .  A
C1778      F1779   1.347       .  S
C1783      C1784   1.388       .  A
C1783      C1788   1.403       .  A
C1783      F1790   1.329       .  S
C1785      C1786   1.432       .  A
C1785      F1792   1.345       .  S
C1786      F1791   1.355       .  S
C1787      C1788   1.377       .  A
C1788      F1789   1.335       .  S
C1793      C1798   1.408       .  A
C1793      F1800   1.356       .  S
C1794      C1795   1.360       .  A
C1795      C1796   1.341       .  A
C1795      F1802   1.368   1_545  S
C1796      C1797   1.440       .  A
C1796      F1801   1.337   1_545  S
C1798      F1799   1.357       .  S
C1803      C3676   1.416       .  A
C1803      C1808   1.414       .  A
C1803      F1810   1.357       .  S
C1804      C3675   1.415       .  A
C1804      C1805   1.389       .  A
C1805      C1806   1.406       .  A
C1805      F1812   1.347       .  S
C1806      C1807   1.419       .  A
C1806      F1811   1.349       .  S
C1807      C3680   1.406       .  A
C1808      C3679   1.406       .  A
C1808      F1809   1.347       .  S
C1813      C1818   1.398       .  A
C1813      F1820   1.331       .  S
C1814      C1815   1.416       .  A
C1815      C1816   1.409       .  A
C1815      F1822   1.354       .  S
C1816      C1817   1.414       .  A
C1816      F1821   1.356       .  S
C1818      F1819   1.348       .  S
C1823      C3696   1.411       .  A
C1823      C1828   1.413       .  A
C1823      F1830   1.358       .  S
C1824      C3695   1.412       .  A
C1824      C1825   1.440       .  A
C1825      C1826   1.360       .  A
C1825      F1832   1.338       .  S
C1826      C1827   1.367       .  A
C1826      F1831   1.365       .  S
C1827      C3319   1.444       .  S
C1827      C3700   1.406       .  A
C1828      C3699   1.405       .  A
C1828      F1829   1.356       .  S
C1833      C1838   1.429       .  A
C1833      F1840   1.352       .  S
C1834      C1835   1.381       .  A
C1835      C1836   1.396       .  A
C1835      F1842   1.353       .  S
C1836      C1837   1.392       .  A
C1836      F1841   1.352       .  S
C1838      F1839   1.354       .  S
C1843      C1844   1.397       .  A
C1843      C1848   1.408       .  A
C1843      F1850   1.332       .  S
C1844      C3289   1.504       .  S
C1844      C3717   1.398       .  A
C1845      C3716   1.401       .  A
C1845      C1846   1.409       .  A
C1845      F1852   1.335       .  S
C1846      C3719   1.399       .  A
C1846      F1851   1.350       .  S
C1847      C3718   1.413       .  A
C1847      C1848   1.386       .  A
C1848      F1849   1.348       .  S
C1853      C1854   1.378       .  A
C1853      C1858   1.378       .  A
C1853      F1860   1.336       .  S
C1855      C1856   1.371       .  A
C1855      F1862   1.357       .  S
C1856      F1861   1.337       .  S
C1857      C1858   1.405       .  A
C1858      F1859   1.343       .  S
C1863      C3736   1.403       .  A
C1863      C1868   1.403       .  A
C1863      F1870   1.357       .  S
C1864      C3735   1.406       .  A
C1864      C1865   1.445       .  A
C1865      C1866   1.346   1_655  A
C1865      F1872   1.338   1_655  S
C1866      C1867   1.356   1_455  A
C1866      F1871   1.367       .  S
C1867      C3288   1.426       .  S
C1867      C3740   1.402       .  A
C1868      C3739   1.409       .  A
C1868      F1869   1.352       .  S
O1873      C1884   1.285       .  A
O1873     Zr2377   2.389       .  S
O1874      C1885   1.295       .  A
O1875      C1886   1.292       .  A
O1875     Zr2817   2.438       .  S
O1876      C1887   1.285       .  A
O1877      C1887   1.292       .  A
O1877     Zr1911   2.435   1_565  S
O1878      C1886   1.296       .  A
O1878     Zr2378   2.481       .  S
O1879      C1885   1.282       .  A
O1879     Zr2817   2.412       .  S
O1880      C1884   1.270       .  A
O1880     Zr1881   2.414   1_545  S
Zr1881     O2811   2.429       .  S
Zr1881     O2815   2.408       .  S
Zr1881     O1883   2.286   1_565  S
Zr1881     O2825   2.303       .  S
O1882     Zr1908   2.312       .  S
O1882     Zr2847   2.359       .  S
O1883     Zr2377   2.316       .  S
O1883     Zr3314   2.265       .  S
C1886      C3258   1.499       .  S
C1887      C2302   1.484       .  S
H1888      O1889   0.956       .  S
O1889     Zr2817   2.301       .  S
O1889     Zr2378   2.276       .  S
H1890      O1891   0.966       .  S
O1891     Zr1911   2.375       .  S
O1892      C1915   1.268       .  A
O1892     Zr2376   2.320       .  S
O1893      C1916   1.302       .  A
O1894      C1917   1.292       .  A
O1894     Zr1910   2.440       .  S
O1895      C1918   1.289       .  A
O1895     Zr2847   2.437   1_556  S
O1896      C1919   1.280   1_554  A
O1896     Zr1911   2.380       .  S
O1897      C1920   1.293       .  A
O1897     Zr2846   2.441       .  S
O1898      C1921   1.290       .  A
O1899      C1922   1.289       .  A
O1899     Zr2848   2.417       .  S
O1900      C1921   1.262       .  A
O1900     Zr1910   2.344       .  S
O1901      C1922   1.305       .  A
O1901     Zr2379   2.511       .  S
O1902      C2385   1.294       .  A
O1903      C1920   1.300       .  A
O1903     Zr1909   2.466       .  S
O1904      C2387   1.290       .  A
O1905      C1918   1.293   1_554  A
O1905     Zr1908   2.448       .  S
O1906      C1915   1.301       .  A
O1906     Zr1912   2.481       .  S
O1907      C1916   1.293       .  A
O1907     Zr2848   2.438       .  S
Zr1908     O2360   2.344   1_554  S
Zr1908     O2394   2.347   1_554  S
Zr1909     O2341   2.377       .  S
Zr1909     O2351   2.322       .  S
Zr1909     O1924   2.260       .  S
Zr1910     O2346   2.357       .  S
Zr1910     O2833   2.462       .  S
Zr1910     O3287   2.308       .  S
Zr1910     O2357   2.356       .  S
Zr1910     O1914   2.364       .  S
Zr1910     O2860   2.269       .  S
Zr1911     O2831   2.434   1_544  S
Zr1911     O2369   2.502   1_554  S
Zr1911     O2818   2.360   1_545  S
Zr1911     O2381   2.337   1_554  S
Zr1911     O3330   2.305   1_544  S
Zr1912     O2835   2.420       .  S
Zr1912     O2843   2.434       .  S
Zr1912     O2849   2.326       .  S
Zr1912     O1926   2.308       .  S
O1913     Zr2379   2.360       .  S
O1913     Zr2848   2.325       .  S
C1916      C2275   1.501       .  S
C1917      O2370   1.298       .  A
C1917      C2225   1.496       .  S
C1918      C2245   1.489       .  S
C1919      O2372   1.286       .  A
C1919      C2252   1.497       .  S
C1920      C2232   1.497       .  S
C1921      C2262   1.413       .  S
C1922      C2282   1.506       .  S
H1923      O1924   0.953       .  S
O1924     Zr2846   2.288       .  S
H1925      O1926   0.960       .  S
O1926     Zr2376   2.359       .  S
O1926     Zr3315   2.311       .  S
C1927      C1938   1.542       .  S
C1927      C1928   1.408       .  A
C1927      C1932   1.469       .  A
C1928      C1929   1.387       .  A
C1928      H1933   1.085       .  S
C1929      C2332   1.507       .  S
C1929      C1930   1.387       .  A
C1930      C1931   1.411       .  A
C1930      H1934   1.085       .  S
C1931      C2131   1.544       .  S
C1931      C1932   1.478       .  A
C1932      H1935   1.082       .  S
O1936     Zr1948   2.498   1_455  S
O1937      C1938   1.296       .  A
O1937     Zr1974   2.496       .  S
O1939      C2877   1.309       .  A
O1939     Zr1951   2.510   1_565  S
O1940      C1941   1.299       .  A
O1940     Zr1975   2.504       .  S
C1941      O2875   1.313       .  A
C1941      C2052   1.558       .  S
O1942     Zr1951   2.499       .  S
O1943      C1944   1.310       .  A
O1943     Zr1974   2.555       .  S
C1944      C2043   1.572       .  S
O1945      C2883   1.298       .  A
O1945     Zr1948   2.515       .  S
O1946      C1947   1.328       .  A
O1946     Zr1975   2.597       .  S
C1947      O2881   1.298       .  A
C1947      C2934   1.578       .  S
Zr1948     O1954   2.357       .  S
Zr1948     O1955   2.340       .  S
Zr1948     O2914   2.396   1_545  S
Zr1948     O1949   2.421       .  S
Zr1948     O1950   2.391   1_655  S
O1949      H1992   0.990       .  S
O1950      H1991   0.977       .  S
O1950      H1995   0.984   1_455  S
Zr1951     O1955   2.338       .  S
Zr1951     O1954   2.364       .  S
Zr1951     O2917   2.376   1_545  S
Zr1951     O1952   2.415       .  S
Zr1951     O1953   2.406       .  S
O1952      H1993   0.989       .  S
O1952      H1996   0.986       .  S
O1953      H1986   0.990       .  S
O1955     Zr2911   2.398   1_545  S
O1955      H1982   0.962       .  S
O1956     Zr1968   2.497       .  S
O1957      C1958   1.330   1_655  A
O1957     Zr1975   2.611       .  S
O1959      C2897   1.292       .  A
O1959     Zr1971   2.496       .  S
O1960      C1961   1.310   1_545  A
O1960     Zr1974   2.514       .  S
C1961      O2895   1.290       .  A
C1961      C2034   1.539       .  S
O1962     Zr1971   2.482       .  S
O1963      C1964   1.301       .  A
O1963     Zr1975   2.508       .  S
C1964      C2025   1.537       .  S
O1965      C2903   1.292       .  A
O1965     Zr1968   2.444       .  S
O1966      C1967   1.307       .  A
O1966     Zr1974   2.523       .  S
C1967      O2901   1.292   1_545  A
C1967      C2016   1.504       .  S
Zr1968     O1976   2.323       .  S
Zr1968     O1977   2.361       .  S
Zr1968     O2916   2.422       .  S
Zr1968     O1969   2.437       .  S
Zr1968     O1970   2.381       .  S
O1969      H1989   0.986       .  S
O1969      H1994   0.989       .  S
O1970      H1990   0.978       .  S
Zr1971     O1977   2.347       .  S
Zr1971     O1976   2.322       .  S
Zr1971     O2915   2.375       .  S
Zr1971     O1972   2.431       .  S
Zr1971     O1973   2.311       .  S
O1972      H1988   0.989       .  S
O1973      H1987   0.986       .  S
O1973      H1997   0.984       .  S
Zr1974     O2913   2.394   1_545  S
Zr1974     O1979   2.384       .  S
Zr1974     O1980   2.411       .  S
Zr1975     O2891   2.402       .  S
Zr1975     O1978   2.380       .  S
Zr1975     O1981   2.417       .  S
O1976      H1984   0.962       .  S
O1977     Zr2910   2.394       .  S
O1978     Zr2884   2.394       .  S
O1979     Zr2907   2.377   1_545  S
O1979      H1983   0.965       .  S
O1980     Zr2904   2.422   1_545  S
O1980      H1985   0.966       .  S
O1981     Zr2887   2.388       .  S
C1998      C2883   1.584       .  S
C1998      C1999   1.412   1_545  A
C1998      C2003   1.482       .  A
C1999      C2000   1.410       .  A
C1999      H2004   1.083       .  S
C2000      C2325   1.526       .  S
C2000      C2001   1.396       .  A
C2001      C2002   1.407   1_565  A
C2001      H2005   1.085       .  S
C2002      C2069   1.555       .  S
C2002      C2003   1.483       .  A
C2003      H2006   1.082       .  S
C2007      C2008   1.413       .  A
C2007      C2012   1.484       .  A
C2008      C2009   1.414       .  A
C2008      H2013   1.083       .  S
C2009      C2315   1.527       .  S
C2009      C2010   1.391       .  A
C2010      C2011   1.408       .  A
C2010      H2014   1.083       .  S
C2011      C2125   1.555       .  S
C2011      C2012   1.481       .  A
C2012      H2015   1.080       .  S
C2016      C2017   1.408   1_545  A
C2016      C2021   1.443       .  A
C2017      C2018   1.388       .  A
C2017      H2022   1.073       .  S
C2018      C2305   1.516       .  S
C2018      C2019   1.401       .  A
C2019      C2020   1.414   1_565  A
C2019      H2023   1.085       .  S
C2020      C2063   1.513       .  S
C2020      C2021   1.446       .  A
C2021      H2024   1.082       .  S
C2025      C2026   1.412   1_655  A
C2025      C2030   1.468       .  A
C2026      C2027   1.386       .  A
C2026      H2031   1.085       .  S
C2027      C2292   1.519       .  S
C2027      C2028   1.386       .  A
C2028      C2029   1.412   1_455  A
C2028      H2032   1.082       .  S
C2029      C2145   1.542       .  S
C2029      C2030   1.476       .  A
C2030      H2033   1.082       .  S
C2034      C2035   1.403   1_565  A
C2034      C2039   1.464       .  A
C2035      C2036   1.386       .  A
C2035      H2040   1.083       .  S
C2036      C2285   1.526       .  S
C2036      C2037   1.415       .  A
C2037      C2038   1.417   1_545  A
C2037      H2041   1.080       .  S
C2038      C3019   1.550       .  S
C2038      C2039   1.462       .  A
C2039      H2042   1.081       .  S
C2043      C2044   1.418       .  A
C2043      C2048   1.478       .  A
C2044      C2045   1.419       .  A
C2044      H2049   1.084       .  S
C2045      C2272   1.531       .  S
C2045      C2046   1.390       .  A
C2046      C2047   1.405       .  A
C2046      H2050   1.083       .  S
C2047      C2048   1.479       .  A
C2048      H2051   1.082       .  S
C2052      C2053   1.407       .  A
C2052      C2057   1.479       .  A
C2053      C2054   1.389       .  A
C2053      H2058   1.084       .  S
C2054      C2265   1.495       .  S
C2054      C2055   1.380       .  A
C2055      C2056   1.402       .  A
C2055      H2059   1.086       .  S
C2056      C2089   1.549       .  S
C2056      C2057   1.483       .  A
C2057      H2060   1.082       .  S
O2061      C2999   1.290       .  A
O2061     Zr2073   2.459       .  S
O2062      C2063   1.289       .  A
O2062     Zr2099   2.469       .  S
C2063      O2997   1.291   1_545  A
O2064      C2534   1.293       .  A
O2064     Zr2076   2.525   1_556  S
O2065      C2066   1.291       .  A
O2065     Zr2100   2.422       .  S
C2066      O2532   1.296       .  A
C2066      C2216   1.499       .  S
O2067      C3005   1.303       .  A
O2067     Zr2076   2.511       .  S
O2068      C2069   1.309       .  A
O2068     Zr2099   2.547       .  S
C2069      O3003   1.304   1_545  A
O2070      C2540   1.293   1_554  A
O2070     Zr2073   2.490       .  S
O2071      C2072   1.302       .  A
O2071     Zr2100   2.473       .  S
C2072      O2538   1.291       .  A
C2072      C2662   1.521       .  S
Zr2073     O2079   2.378       .  S
Zr2073     O2080   2.350       .  S
Zr2073     O2571   2.362   1_554  S
Zr2073     O3041   2.397       .  S
Zr2073     O2074   2.445       .  S
Zr2073     O2075   2.434       .  S
O2074      H2117   0.990       .  S
O2075      H2116   0.984       .  S
O2075      H2120   0.986       .  S
Zr2076     O2080   2.370       .  S
Zr2076     O2079   2.335       .  S
Zr2076     O3040   2.362       .  S
Zr2076     O2574   2.400   1_554  S
Zr2076     O2077   2.436       .  S
Zr2076     O2078   2.436       .  S
O2077      H2118   0.988       .  S
O2077      H2121   0.983       .  S
O2078      H2111   0.988       .  S
O2079     Zr3035   2.392       .  S
O2080     Zr2568   2.404   1_554  S
O2080      H2107   0.965       .  S
O2081      C3019   1.293   1_545  A
O2081     Zr2093   2.487       .  S
O2082      C2083   1.314       .  A
O2082     Zr2100   2.573       .  S
C2083      O3017   1.293       .  A
C2083      C2974   1.557       .  S
O2084      C2554   1.297       .  A
O2084     Zr2096   2.513       .  S
O2085      C2086   1.304   1_554  A
O2085     Zr2099   2.492       .  S
C2086      O2552   1.298       .  A
C2086      C2203   1.545   1_556  S
O2087      C3025   1.310   1_545  A
O2087     Zr2096   2.509       .  S
O2088      C2089   1.293       .  A
O2088     Zr2100   2.481       .  S
C2089      O3023   1.315       .  A
O2090      C2560   1.293       .  A
O2090     Zr2093   2.533       .  S
O2091      C2092   1.292       .  A
O2091     Zr2099   2.499       .  S
C2092      O2558   1.287   1_554  A
C2092      C2185   1.541       .  S
Zr2093     O2101   2.357       .  S
Zr2093     O2102   2.357       .  S
Zr2093     O2573   2.370       .  S
Zr2093     O3039   2.372   1_545  S
Zr2093     O2094   2.429       .  S
Zr2093     O2095   2.427       .  S
O2094      H2114   0.988       .  S
O2094      H2119   0.983       .  S
O2095      H2115   0.984       .  S
Zr2096     O2102   2.384       .  S
Zr2096     O2101   2.347       .  S
Zr2096     O3042   2.372   1_545  S
Zr2096     O2572   2.366       .  S
Zr2096     O2097   2.433       .  S
Zr2096     O2098   2.357       .  S
O2097      H2113   0.990       .  S
O2098      H2112   0.987       .  S
O2098      H2122   0.985       .  S
Zr2099     O3015   2.393   1_545  S
Zr2099     O2570   2.395   1_554  S
Zr2099     O2104   2.369       .  S
Zr2099     O2105   2.430       .  S
Zr2100     O2548   2.406       .  S
Zr2100     O3037   2.352       .  S
Zr2100     O2103   2.348       .  S
Zr2100     O2106   2.412       .  S
O2101     Zr3036   2.379   1_545  S
O2101      H2109   0.961       .  S
O2102     Zr2567   2.408       .  S
O2103     Zr2541   2.371       .  S
O2103     Zr3029   2.358       .  S
O2104     Zr3012   2.364   1_545  S
O2104     Zr2564   2.372   1_554  S
O2104      H2108   0.962       .  S
O2105     Zr3009   2.395   1_545  S
O2105     Zr2561   2.369   1_554  S
O2105      H2110   0.966       .  S
O2106     Zr2544   2.407       .  S
O2106     Zr3032   2.361       .  S
O2123     Zr2135   2.497       .  S
O2124      C2125   1.311       .  A
O2124     Zr2161   2.557       .  S
O2126      C2596   1.305   1_554  A
O2126     Zr2138   2.518       .  S
O2127      C2128   1.303       .  A
O2127     Zr2162   2.516       .  S
C2128      O2594   1.307       .  A
C2128      C2675   1.548       .  S
O2129     Zr2138   2.495   1_455  S
O2130      C2131   1.291       .  A
O2130     Zr2161   2.486       .  S
O2132      C2602   1.296       .  A
O2132     Zr2135   2.536   1_556  S
O2133      C2134   1.294       .  A
O2133     Zr2162   2.437       .  S
C2134      O2600   1.294       .  A
C2134      C2212   1.496       .  S
Zr2135     O2141   2.336       .  S
Zr2135     O2142   2.373       .  S
Zr2135     O2633   2.378   1_554  S
Zr2135     O2136   2.448       .  S
Zr2135     O2137   2.440       .  S
O2136      H2179   0.989       .  S
O2137      H2178   0.987   1_655  S
O2137      H2182   0.973       .  S
Zr2138     O2142   2.362       .  S
Zr2138     O2141   2.344       .  S
Zr2138     O2636   2.369   1_554  S
Zr2138     O2139   2.423       .  S
Zr2138     O2140   2.403       .  S
O2139      H2180   0.988       .  S
O2139      H2183   0.986       .  S
O2140      H2173   0.988   1_655  S
O2142     Zr2630   2.428   1_554  S
O2142      H2169   0.966       .  S
O2143     Zr2155   2.472       .  S
O2144      C2145   1.295       .  A
O2144     Zr2162   2.501       .  S
O2146      C2616   1.296       .  A
O2146     Zr2158   2.464       .  S
O2147      C2148   1.303       .  A
O2147     Zr2161   2.511       .  S
C2148      O2614   1.295       .  A
C2148      C2187   1.509       .  S
O2149     Zr2158   2.508       .  S
O2150      C2151   1.309   1_655  A
O2150     Zr2162   2.517       .  S
O2152      C2622   1.293       .  A
O2152     Zr2155   2.458       .  S
O2153      C2154   1.297       .  A
O2153     Zr2161   2.496       .  S
C2154      O2620   1.293   1_554  A
C2154      C2198   1.518   1_554  S
Zr2155     O2163   2.345       .  S
Zr2155     O2164   2.370       .  S
Zr2155     O2635   2.379       .  S
Zr2155     O2156   2.443       .  S
Zr2155     O2157   2.415       .  S
O2156      H2176   0.987       .  S
O2156      H2181   0.988       .  S
O2157      H2177   0.989       .  S
Zr2158     O2164   2.370       .  S
Zr2158     O2163   2.345       .  S
Zr2158     O2634   2.379       .  S
Zr2158     O2159   2.408       .  S
Zr2158     O2160   2.404       .  S
O2159      H2175   0.990       .  S
O2160      H2174   0.988       .  S
O2160      H2184   0.987       .  S
Zr2161     O2632   2.404   1_554  S
Zr2161     O2166   2.424       .  S
Zr2161     O2167   2.387       .  S
Zr2162     O2610   2.402       .  S
Zr2162     O2165   2.404       .  S
Zr2162     O2168   2.360       .  S
O2163      H2171   0.963       .  S
O2164     Zr2629   2.416       .  S
O2165     Zr2603   2.361       .  S
O2166     Zr2626   2.392   1_554  S
O2166      H2170   0.964       .  S
O2167     Zr2623   2.363   1_554  S
O2167      H2172   0.962       .  S
O2168     Zr2606   2.373       .  S
C2185      C2186   1.455       .  A
C2185      C2190   1.422   1_554  A
C2186      C2187   1.455       .  A
C2186      H2191   1.082       .  S
C2187      C2188   1.406   1_554  A
C2188      C2189   1.383       .  A
C2188      H2192   1.082       .  S
C2189      C2255   1.526       .  S
C2189      C2190   1.419       .  A
C2190      H2193   1.084       .  S
C2194      C2540   1.524       .  S
C2194      C2195   1.417       .  A
C2194      C2199   1.454   1_556  A
C2195      C2664   1.387       .  A
C2195      H2668   1.082       .  S
C2196      C2710   1.527       .  S
C2196      C2663   1.387       .  A
C2196      C2665   1.402       .  A
C2197      C2664   1.398       .  A
C2197      C2198   1.421       .  A
C2197      H2669   1.084       .  S
C2198      C2199   1.454   1_556  A
C2199      H2202   1.082       .  S
H2200      C2663   1.083       .  S
H2201      C2665   1.084       .  S
C2203      C2204   1.413       .  A
C2203      C2208   1.460   1_554  A
C2204      C2673   1.393       .  A
C2204      H2677   1.083       .  S
C2205      C2235   1.524       .  S
C2205      C2672   1.391       .  A
C2205      C2674   1.406       .  A
C2206      C2673   1.405       .  A
C2206      C2207   1.409       .  A
C2206      H2210   1.084       .  S
C2207      C2596   1.533   1_554  S
C2207      C2208   1.461   1_554  A
C2208      H2211   1.082       .  S
H2209      C2672   1.083       .  S
C2212      C2213   1.416       .  A
C2212      C2217   1.435       .  A
C2213      C2214   1.392       .  A
C2213      H2218   1.082       .  S
C2214      C2222   1.524       .  S
C2214      C2215   1.393       .  A
C2215      C2216   1.419       .  A
C2215      H2219   1.082       .  S
C2216      C2217   1.435       .  A
C2217      H2220   1.082       .  S
C2221      C2222   1.412       .  A
C2221      C2226   1.395       .  A
C2221      F2696   1.356       .  S
C2222      C2223   1.412       .  A
C2223      C2224   1.398       .  A
C2223      F2230   1.354       .  S
C2224      C2225   1.411       .  A
C2224      F2229   1.353       .  S
C2225      C2226   1.406       .  A
C2226      F2695   1.347       .  S
F2227      C2694   1.349   1_556  S
F2228      C2689   1.335       .  S
C2231      C2232   1.413       .  A
C2231      C2236   1.410       .  A
C2231      F2238   1.351       .  S
C2232      C2701   1.411       .  A
C2233      C2700   1.414       .  A
C2233      C2234   1.406       .  A
C2233      F2240   1.350       .  S
C2234      C2703   1.398       .  A
C2234      F2239   1.351       .  S
C2235      C2702   1.395       .  A
C2235      C2236   1.411       .  A
C2236      F2237   1.355       .  S
C2241      C2242   1.409       .  A
C2241      C2246   1.412       .  A
C2241      F2248   1.352       .  S
C2242      C2664   1.527       .  S
C2242      C2711   1.394       .  A
C2243      C2710   1.396       .  A
C2243      C2244   1.389       .  A
C2243      F2250   1.339       .  S
C2244      C2713   1.402       .  A
C2244      F2249   1.351       .  S
C2245      C2712   1.402       .  A
C2245      C2246   1.413       .  A
C2246      F2247   1.349       .  S
C2251      C2252   1.393       .  A
C2251      C2256   1.396       .  A
C2251      F2258   1.348   1_556  S
C2252      C2721   1.420       .  A
C2253      C2720   1.404       .  A
C2253      C2254   1.428       .  A
C2253      F2260   1.339       .  S
C2254      C2723   1.408       .  A
C2254      F2259   1.354       .  S
C2255      C2722   1.410       .  A
C2255      C2256   1.366       .  A
C2256      F2257   1.323       .  S
C2261      C3198   1.404       .  A
C2261      C2266   1.407       .  A
C2261      F2268   1.356       .  S
C2262      C3197   1.408       .  A
C2262      C2263   1.363       .  A
C2263      C2264   1.331       .  A
C2263      F2270   1.369       .  S
C2264      C2265   1.429       .  A
C2264      F2269   1.336       .  S
C2265      C3202   1.407       .  A
C2266      C3201   1.410       .  A
C2266      F2267   1.357       .  S
C2271      C2276   1.416       .  A
C2271      F2278   1.357       .  S
C2272      C2273   1.392       .  A
C2273      C2274   1.406       .  A
C2273      F2280   1.350       .  S
C2274      C2275   1.417       .  A
C2274      F2279   1.342       .  S
C2276      F2277   1.350       .  S
C2281      C3218   1.408       .  A
C2281      C2286   1.401       .  A
C2281      F2288   1.324       .  S
C2282      C3217   1.407       .  A
C2282      C2283   1.415       .  A
C2283      C2284   1.411       .  A
C2283      F2290   1.352       .  S
C2284      C2285   1.416       .  A
C2284      F2289   1.356       .  S
C2285      C3222   1.390       .  A
C2286      C3221   1.391       .  A
C2286      F2287   1.352       .  S
C2291      C2296   1.414       .  A
C2291      F2298   1.357       .  S
C2292      C2293   1.423       .  A
C2293      C2294   1.357       .  A
C2293      F2300   1.335   1_455  S
C2294      C2295   1.373       .  A
C2294      F2299   1.361   1_455  S
C2296      F2297   1.356       .  S
C2301      C3238   1.431       .  A
C2301      C2306   1.429       .  A
C2301      F2308   1.352       .  S
C2302      C3237   1.430       .  A
C2302      C2303   1.387       .  A
C2303      C2304   1.394       .  A
C2303      F2310   1.355   1_565  S
C2304      C2305   1.392       .  A
C2304      F2309   1.353       .  S
C2305      C3242   1.416       .  A
C2306      C3241   1.416       .  A
C2306      F2307   1.354       .  S
C2311      C2312   1.397       .  A
C2311      C2316   1.409       .  A
C2311      F2318   1.330       .  S
C2313      C2314   1.421       .  A
C2313      F2320   1.335       .  S
C2314      F2319   1.352       .  S
C2315      C2316   1.388       .  A
C2316      F2317   1.350       .  S
C2321      C2322   1.401       .  A
C2321      C2326   1.414       .  A
C2321      F2328   1.342       .  S
C2322      C2822   1.498       .  S
C2322      C3259   1.398       .  A
C2323      C3258   1.400       .  A
C2323      C2324   1.410       .  A
C2323      F2330   1.332       .  S
C2324      C3261   1.407       .  A
C2324      F2329   1.352       .  S
C2325      C3260   1.409       .  A
C2325      C2326   1.396       .  A
C2326      F2327   1.356       .  S
C2331      C2336   1.414       .  A
C2331      F2338   1.357       .  S
C2332      C2333   1.429       .  A
C2333      C2334   1.338       .  A
C2333      F2340   1.337       .  S
C2334      C2335   1.369       .  A
C2334      F2339   1.369       .  S
C2336      F2337   1.356       .  S
O2341      C2352   1.288       .  A
O2342      C2353   1.294       .  A
O2343      C2354   1.264       .  A
O2343     Zr3285   2.398   1_655  S
O2344      C2355   1.270       .  A
O2345      C2355   1.304       .  A
O2345     Zr2379   2.491   1_565  S
O2346      C2354   1.255       .  A
O2347      C2353   1.282       .  A
O2347     Zr3285   2.440   1_655  S
O2348      C2352   1.270       .  A
O2348     Zr2349   2.419   1_545  S
Zr2349     O3279   2.435       .  S
Zr2349     O3283   2.414       .  S
Zr2349     O2351   2.288   1_565  S
Zr2349     O3293   2.303       .  S
O2350     Zr2376   2.327       .  S
O2350     Zr3315   2.356       .  S
O2351     Zr2846   2.264       .  S
C2354      C3726   1.436       .  S
C2355      C2770   1.484       .  S
H2356      O2357   0.958       .  S
O2357     Zr3285   2.340   1_655  S
H2358      O2359   0.966       .  S
O2359     Zr2379   2.382       .  S
O2360      C2383   1.273       .  A
O2361      C2384   1.303       .  A
O2362      C2385   1.282       .  A
O2362     Zr2378   2.374   1_556  S
O2363      C2386   1.291       .  A
O2363     Zr3315   2.452       .  S
O2364      C2387   1.287       .  A
O2364     Zr2379   2.406       .  S
O2365      C2388   1.295       .  A
O2365     Zr3314   2.450       .  S
O2366      C2389   1.275       .  A
O2367      C2390   1.284       .  A
O2367     Zr3316   2.403       .  S
O2368      C2389   1.277       .  A
O2368     Zr2378   2.381   1_556  S
O2369      C2390   1.304       .  A
O2371      C2388   1.297       .  A
O2371     Zr2377   2.442       .  S
O2373      C2386   1.289       .  A
O2373     Zr2376   2.431       .  S
O2374      C2383   1.297       .  A
O2374     Zr2380   2.462       .  S
O2375      C2384   1.289       .  A
O2375     Zr3316   2.422       .  S
Zr2377     O2392   2.265   1_554  S
Zr2378     O3301   2.452       .  S
Zr2378     O2819   2.263       .  S
Zr2378     O2382   2.369   1_554  S
Zr2378     O3328   2.284   1_554  S
Zr2379     O3299   2.446   1_545  S
Zr2379     O3286   2.356   1_545  S
Zr2379     O2862   2.311   1_545  S
Zr2380     O3303   2.401       .  S
Zr2380     O3311   2.422       .  S
Zr2380     O3317   2.309       .  S
Zr2380     O2394   2.296       .  S
O2381     Zr3316   2.311       .  S
C2384      C2743   1.496       .  S
C2385      C2693   1.468       .  S
C2386      C2713   1.484       .  S
C2387      C2720   1.510       .  S
C2388      C2700   1.490       .  S
C2389      C2730   1.419       .  S
C2390      C2750   1.502       .  S
H2391      O2392   0.951       .  S
O2392     Zr3314   2.286   1_556  S
H2393      O2394   0.961       .  S
O2394     Zr2847   2.304   1_556  S
C2395      C2406   1.577       .  S
C2395      C2396   1.402       .  A
C2395      C2400   1.504       .  A
C2396      C2397   1.382       .  A
C2396      H2401   1.085       .  S
C2397      C2800   1.510       .  S
C2397      C2398   1.382       .  A
C2398      C2399   1.407       .  A
C2398      H2402   1.083       .  S
C2399      C2599   1.571       .  S
C2399      C2400   1.491       .  A
C2400      H2403   1.082       .  S
O2404     Zr2416   2.504       .  S
O2405      C2406   1.298       .  A
O2405     Zr2442   2.518       .  S
O2407      C3345   1.307       .  A
O2407     Zr2419   2.501   1_565  S
O2408      C2409   1.288       .  A
O2408     Zr2443   2.448       .  S
C2409      O3343   1.313       .  A
C2409      C2520   1.524       .  S
O2410     Zr2419   2.499       .  S
O2411      C2412   1.309       .  A
O2411     Zr2442   2.544       .  S
C2412      C2511   1.553       .  S
O2413      C3351   1.297       .  A
O2413     Zr2416   2.509       .  S
O2414      C2415   1.324       .  A
O2414     Zr2443   2.613       .  S
C2415      O3349   1.303       .  A
C2415      C3402   1.574       .  S
Zr2416     O2422   2.353       .  S
Zr2416     O2423   2.339       .  S
Zr2416     O3382   2.397   1_545  S
Zr2416     O2417   2.421       .  S
Zr2416     O2418   2.392       .  S
O2417      H2460   0.989       .  S
O2418      H2459   0.978   1_655  S
O2418      H2463   0.984       .  S
Zr2419     O2423   2.339       .  S
Zr2419     O2422   2.360       .  S
Zr2419     O3385   2.377   1_545  S
Zr2419     O2420   2.417       .  S
Zr2419     O2421   2.407       .  S
O2420      H2461   0.989       .  S
O2420      H2464   0.985       .  S
O2421      H2454   0.990       .  S
O2423     Zr3379   2.399   1_545  S
O2423      H2450   0.962       .  S
O2424     Zr2436   2.498       .  S
O2425      C2426   1.317       .  A
O2425     Zr2443   2.550       .  S
O2427      C3365   1.296       .  A
O2427     Zr2439   2.512       .  S
O2428      C2429   1.304   1_545  A
O2428     Zr2442   2.485       .  S
C2429      O3363   1.295       .  A
C2429      C2502   1.542       .  S
O2430     Zr2439   2.486       .  S
O2431      C2432   1.297       .  A
O2431     Zr2443   2.489       .  S
C2432      C2493   1.522       .  S
O2433      C3371   1.288       .  A
O2433     Zr2436   2.433       .  S
O2434      C2435   1.315       .  A
O2434     Zr2442   2.561       .  S
C2435      O3369   1.289   1_545  A
C2435      C2484   1.521       .  S
Zr2436     O2444   2.338       .  S
Zr2436     O2445   2.367       .  S
Zr2436     O3384   2.389       .  S
Zr2436     O2437   2.431       .  S
Zr2436     O2438   2.376       .  S
O2437      H2457   0.986       .  S
O2437      H2462   0.989       .  S
O2438      H2458   0.983       .  S
Zr2439     O2445   2.360       .  S
Zr2439     O2444   2.363       .  S
Zr2439     O3383   2.376       .  S
Zr2439     O2440   2.431       .  S
Zr2439     O2441   2.358       .  S
O2440      H2456   0.989       .  S
O2441      H2455   0.986       .  S
O2441      H2465   0.986       .  S
Zr2442     O3381   2.396   1_545  S
Zr2442     O2447   2.390       .  S
Zr2442     O2448   2.376       .  S
Zr2443     O3359   2.389       .  S
Zr2443     O2446   2.379       .  S
Zr2443     O2449   2.436       .  S
O2444      H2452   0.964       .  S
O2445     Zr3378   2.397       .  S
O2446     Zr3352   2.384       .  S
O2447     Zr3375   2.374   1_545  S
O2447      H2451   0.966       .  S
O2448     Zr3372   2.379   1_545  S
O2448      H2453   0.960       .  S
O2449     Zr3355   2.376       .  S
C2466      C3351   1.578       .  S
C2466      C2467   1.412   1_545  A
C2466      C2471   1.479       .  A
C2467      C2468   1.410       .  A
C2467      H2472   1.083       .  S
C2468      C2793   1.526       .  S
C2468      C2469   1.396       .  A
C2469      C2470   1.408   1_565  A
C2469      H2473   1.084       .  S
C2470      C2537   1.549       .  S
C2470      C2471   1.479       .  A
C2471      H2474   1.082       .  S
C2475      C2476   1.413       .  A
C2475      C2480   1.474       .  A
C2476      C2477   1.393       .  A
C2476      H2481   1.083       .  S
C2477      C2783   1.525       .  S
C2477      C2478   1.397       .  A
C2478      C2479   1.418       .  A
C2478      H2482   1.081       .  S
C2479      C2593   1.548       .  S
C2479      C2480   1.471       .  A
C2480      H2483   1.082       .  S
C2484      C2485   1.413   1_545  A
C2484      C2489   1.457       .  A
C2485      C2486   1.387       .  A
C2485      H2490   1.076       .  S
C2486      C2773   1.519       .  S
C2486      C2487   1.398       .  A
C2487      C2488   1.412   1_565  A
C2487      H2491   1.084       .  S
C2488      C2531   1.531       .  S
C2488      C2489   1.458       .  A
C2489      H2492   1.082       .  S
C2493      C2494   1.407   1_655  A
C2493      C2498   1.463       .  A
C2494      C2495   1.383       .  A
C2494      H2499   1.082       .  S
C2495      C2760   1.526       .  S
C2495      C2496   1.384       .  A
C2496      C2497   1.406   1_455  A
C2496      H2500   1.081       .  S
C2497      C2613   1.531       .  S
C2497      C2498   1.470       .  A
C2498      H2501   1.083       .  S
C2502      C2503   1.410   1_565  A
C2502      C2507   1.464       .  A
C2503      C2504   1.386       .  A
C2503      H2508   1.083       .  S
C2504      C2753   1.524       .  S
C2504      C2505   1.408       .  A
C2505      C2506   1.415   1_545  A
C2505      H2509   1.083       .  S
C2506      C3487   1.540       .  S
C2506      C2507   1.465       .  A
C2507      H2510   1.081       .  S
C2511      C2512   1.416       .  A
C2511      C2516   1.466       .  A
C2512      C2513   1.415       .  A
C2512      H2517   1.084       .  S
C2513      C2740   1.527       .  S
C2513      C2514   1.388       .  A
C2514      C2515   1.404       .  A
C2514      H2518   1.084       .  S
C2515      C2516   1.467       .  A
C2516      H2519   1.082       .  S
C2520      C2521   1.406       .  A
C2520      C2525   1.461       .  A
C2521      C2522   1.384       .  A
C2521      H2526   1.083       .  S
C2522      C2733   1.512       .  S
C2522      C2523   1.380       .  A
C2523      C2524   1.405       .  A
C2523      H2527   1.086       .  S
C2524      C2557   1.520       .  S
C2524      C2525   1.459       .  A
C2525      H2528   1.083       .  S
O2529      C3467   1.288       .  A
O2529     Zr2541   2.468       .  S
O2530      C2531   1.293       .  A
O2530     Zr2567   2.495       .  S
C2531      O3465   1.292   1_545  A
O2532     Zr2544   2.490       .  S
O2533      C2534   1.294       .  A
O2533     Zr2568   2.514       .  S
C2534      C2684   1.554       .  S
O2535      C3473   1.313       .  A
O2535     Zr2544   2.546       .  S
O2536      C2537   1.308       .  A
O2536     Zr2567   2.540       .  S
C2537      O3471   1.304   1_545  A
O2538     Zr2541   2.476       .  S
O2539      C2540   1.297       .  A
O2539     Zr2568   2.453       .  S
Zr2541     O2547   2.352       .  S
Zr2541     O2548   2.335       .  S
Zr2541     O3509   2.408       .  S
Zr2541     O2542   2.445       .  S
Zr2541     O2543   2.448       .  S
O2542      H2585   0.990       .  S
O2543      H2584   0.982       .  S
O2543      H2588   0.986       .  S
Zr2544     O2548   2.371       .  S
Zr2544     O2547   2.346       .  S
Zr2544     O3508   2.391       .  S
Zr2544     O2545   2.437       .  S
Zr2544     O2546   2.404       .  S
O2545      H2586   0.990       .  S
O2545      H2589   0.990       .  S
O2546      H2579   0.990       .  S
O2547     Zr3503   2.408       .  S
O2548      H2575   0.965       .  S
O2549      C3487   1.292   1_545  A
O2549     Zr2561   2.455       .  S
O2550      C2551   1.316       .  A
O2550     Zr2568   2.578       .  S
C2551      O3485   1.292       .  A
C2551      C3442   1.541       .  S
O2552     Zr2564   2.512       .  S
O2553      C2554   1.308       .  A
O2553     Zr2567   2.507       .  S
C2554      C2671   1.551       .  S
O2555      C3493   1.309   1_545  A
O2555     Zr2564   2.503       .  S
O2556      C2557   1.286       .  A
O2556     Zr2568   2.451       .  S
C2557      O3491   1.307       .  A
O2558     Zr2561   2.485       .  S
O2559      C2560   1.289       .  A
O2559     Zr2567   2.476       .  S
C2560      C2653   1.539       .  S
Zr2561     O2569   2.345       .  S
Zr2561     O2570   2.344       .  S
Zr2561     O3507   2.370   1_545  S
Zr2561     O2562   2.461       .  S
Zr2561     O2563   2.429       .  S
O2562      H2582   0.988       .  S
O2562      H2587   0.987       .  S
O2563      H2583   0.986       .  S
Zr2564     O2570   2.375       .  S
Zr2564     O2569   2.352       .  S
Zr2564     O3510   2.363   1_545  S
Zr2564     O2565   2.429       .  S
Zr2564     O2566   2.372       .  S
O2565      H2581   0.989       .  S
O2566      H2580   0.983   1_545  S
O2566      H2590   0.983       .  S
Zr2567     O3483   2.389   1_545  S
Zr2567     O2572   2.374       .  S
Zr2567     O2573   2.432       .  S
Zr2568     O3505   2.360       .  S
Zr2568     O2571   2.374       .  S
Zr2568     O2574   2.433       .  S
O2569     Zr3504   2.366   1_545  S
O2569      H2577   0.961       .  S
O2571     Zr3497   2.373       .  S
O2572     Zr3480   2.361   1_545  S
O2572      H2576   0.962       .  S
O2573     Zr3477   2.395   1_545  S
O2573      H2578   0.965       .  S
O2574     Zr3500   2.370       .  S
O2591     Zr2603   2.479       .  S
O2592      C2593   1.315       .  A
O2592     Zr2629   2.578       .  S
O2594     Zr2606   2.526       .  S
O2595      C2596   1.300       .  A
O2595     Zr2630   2.502       .  S
O2597     Zr2606   2.487       .  S
O2598      C2599   1.304       .  A
O2598     Zr2629   2.541       .  S
O2600     Zr2603   2.471       .  S
O2601      C2602   1.288       .  A
O2601     Zr2630   2.495       .  S
C2602      C2680   1.551       .  S
Zr2603     O2609   2.362       .  S
Zr2603     O2610   2.367       .  S
Zr2603     O2604   2.410       .  S
Zr2603     O2605   2.422       .  S
O2604      H2647   0.990       .  S
O2605      H2646   0.985       .  S
O2605      H2650   0.985       .  S
Zr2606     O2610   2.353       .  S
Zr2606     O2609   2.354       .  S
Zr2606     O2607   2.425       .  S
Zr2606     O2608   2.398       .  S
O2607      H2648   0.989       .  S
O2607      H2651   0.989       .  S
O2608      H2641   0.986   1_655  S
O2610      H2637   0.966       .  S
O2611     Zr2623   2.468       .  S
O2612      C2613   1.289       .  A
O2612     Zr2630   2.477       .  S
O2614     Zr2626   2.466   1_554  S
O2615      C2616   1.309       .  A
O2615     Zr2629   2.528       .  S
C2616      C2655   1.510       .  S
O2617     Zr2626   2.491       .  S
O2618      C2619   1.314   1_655  A
O2618     Zr2630   2.538       .  S
O2620     Zr2623   2.457       .  S
O2621      C2622   1.300       .  A
O2621     Zr2629   2.507       .  S
C2622      C2666   1.522       .  S
Zr2623     O2631   2.333       .  S
Zr2623     O2632   2.365       .  S
Zr2623     O2624   2.442       .  S
Zr2623     O2625   2.417       .  S
O2624      H2644   0.988       .  S
O2624      H2649   0.988       .  S
O2625      H2645   0.989       .  S
Zr2626     O2632   2.361       .  S
Zr2626     O2631   2.344       .  S
Zr2626     O2627   2.419       .  S
Zr2626     O2628   2.405       .  S
O2627      H2643   0.989       .  S
O2628      H2642   0.987       .  S
O2628      H2652   0.983       .  S
Zr2629     O2634   2.392       .  S
Zr2629     O2635   2.405       .  S
Zr2630     O2633   2.423       .  S
Zr2630     O2636   2.377       .  S
O2631      H2639   0.963       .  S
O2634      H2638   0.961       .  S
O2635      H2640   0.965       .  S
C2653      C2654   1.453       .  A
C2653      C2658   1.413       .  A
C2654      C2655   1.455       .  A
C2654      H2659   1.082       .  S
C2655      C2656   1.407       .  A
C2656      C2657   1.391       .  A
C2656      H2660   1.086       .  S
C2657      C2723   1.525       .  S
C2657      C2658   1.417       .  A
C2658      H2661   1.084       .  S
C2662      C2663   1.414       .  A
C2662      C2667   1.454       .  A
C2665      C2666   1.422       .  A
C2666      C2667   1.452       .  A
C2667      H2670   1.082       .  S
C2671      C2672   1.411       .  A
C2671      C2676   1.469       .  A
C2673      C2703   1.524       .  S
C2674      C2675   1.411       .  A
C2674      H2678   1.084       .  S
C2675      C2676   1.469       .  A
C2676      H2679   1.082       .  S
C2680      C2681   1.414   1_556  A
C2680      C2685   1.481       .  A
C2681      C2682   1.398       .  A
C2681      H2686   1.085       .  S
C2682      C2690   1.528       .  S
C2682      C2683   1.398       .  A
C2683      C2684   1.415   1_554  A
C2683      H2687   1.085       .  S
C2684      C2685   1.480       .  A
C2685      H2688   1.081       .  S
C2689      C2690   1.388       .  A
C2689      C2694   1.409       .  A
C2690      C2691   1.388       .  A
C2691      C2692   1.408       .  A
C2691      F2698   1.343       .  S
C2692      C2693   1.384   1_554  A
C2692      F2697   1.352   1_554  S
C2693      C2694   1.372   1_556  A
C2699      C2700   1.410       .  A
C2699      C2704   1.408       .  A
C2699      F2706   1.349       .  S
C2701      C2702   1.402       .  A
C2701      F2708   1.340       .  S
C2702      F2707   1.350       .  S
C2703      C2704   1.411       .  A
C2704      F2705   1.356       .  S
C2709      C2710   1.413       .  A
C2709      C2714   1.411       .  A
C2709      F2716   1.355       .  S
C2711      C2712   1.390       .  A
C2711      F2718   1.338       .  S
C2712      F2717   1.349       .  S
C2713      C2714   1.408       .  A
C2714      F2715   1.348       .  S
C2719      C2720   1.390       .  A
C2719      C2724   1.403       .  A
C2719      F2726   1.326       .  S
C2721      C2722   1.431       .  A
C2721      F2728   1.345       .  S
C2722      F2727   1.355       .  S
C2723      C2724   1.380       .  A
C2724      F2725   1.341       .  S
C2729      C3666   1.401       .  A
C2729      C2734   1.408       .  A
C2729      F2736   1.356       .  S
C2730      C3665   1.405       .  A
C2730      C2731   1.360       .  A
C2731      C2732   1.343       .  A
C2731      F2738   1.368       .  S
C2732      C2733   1.440       .  A
C2732      F2737   1.338       .  S
C2733      C3670   1.408       .  A
C2734      C3669   1.409       .  A
C2734      F2735   1.357       .  S
C2739      C2744   1.414       .  A
C2739      F2746   1.357       .  S
C2740      C2741   1.390       .  A
C2741      C2742   1.406       .  A
C2741      F2748   1.348       .  S
C2742      C2743   1.419       .  A
C2742      F2747   1.349       .  S
C2744      F2745   1.346       .  S
C2749      C3686   1.400       .  A
C2749      C2754   1.399       .  A
C2749      F2756   1.331       .  S
C2750      C3685   1.399       .  A
C2750      C2751   1.415       .  A
C2751      C2752   1.409       .  A
C2751      F2758   1.353       .  S
C2752      C2753   1.414       .  A
C2752      F2757   1.356       .  S
C2753      C3690   1.393       .  A
C2754      C3689   1.393       .  A
C2754      F2755   1.348       .  S
C2759      C2764   1.413       .  A
C2759      F2766   1.358       .  S
C2760      C2761   1.439       .  A
C2761      C2762   1.359       .  A
C2761      F2768   1.338   1_455  S
C2762      C2763   1.367       .  A
C2762      F2767   1.365   1_455  S
C2764      F2765   1.356       .  S
C2769      C3706   1.428       .  A
C2769      C2774   1.425       .  A
C2769      F2776   1.354       .  S
C2770      C3705   1.429       .  A
C2770      C2771   1.378       .  A
C2771      C2772   1.397       .  A
C2771      F2778   1.352       .  S
C2772      C2773   1.392       .  A
C2772      F2777   1.353       .  S
C2773      C3710   1.415       .  A
C2774      C3709   1.412       .  A
C2774      F2775   1.352       .  S
C2779      C2780   1.420       .  A
C2779      C2784   1.405       .  A
C2779      F2786   1.345       .  S
C2781      C2782   1.427       .  A
C2781      F2788   1.347       .  S
C2782      F2787   1.353       .  S
C2783      C2784   1.403       .  A
C2784      F2785   1.355       .  S
C2789      C2790   1.401       .  A
C2789      C2794   1.415       .  A
C2789      F2796   1.343       .  S
C2790      C3290   1.498       .  S
C2790      C3727   1.399       .  A
C2791      C3726   1.407       .  A
C2791      C2792   1.391       .  A
C2791      F2798   1.352       .  S
C2792      C3729   1.406       .  A
C2792      F2797   1.355       .  S
C2793      C3728   1.408       .  A
C2793      C2794   1.395       .  A
C2794      F2795   1.356       .  S
C2799      C2804   1.414       .  A
C2799      F2806   1.357       .  S
C2800      C2801   1.442       .  A
C2801      C2802   1.336       .  A
C2801      F2808   1.340       .  S
C2802      C2803   1.361       .  A
C2802      F2807   1.371       .  S
C2804      F2805   1.356       .  S
O2809      C2820   1.285       .  A
O2809     Zr3313   2.382       .  S
O2810      C2821   1.295       .  A
O2811      C2822   1.290       .  A
O2812      C2823   1.285       .  A
O2813      C2823   1.292       .  A
O2813     Zr2847   2.435       .  S
O2814      C2822   1.298       .  A
O2814     Zr3314   2.489   1_565  S
O2815      C2821   1.283       .  A
O2816      C2820   1.270       .  A
O2816     Zr2817   2.423       .  S
Zr2817     O2819   2.286       .  S
O2818     Zr2844   2.312       .  S
O2819     Zr3313   2.318       .  S
C2823      C3238   1.484       .  S
H2824      O2825   0.956       .  S
O2825     Zr3314   2.283   1_565  S
H2826      O2827   0.966       .  S
O2827     Zr2847   2.375       .  S
O2828      C2851   1.268       .  A
O2828     Zr3312   2.316       .  S
O2829      C2852   1.303       .  A
O2830      C2853   1.283       .  A
O2830     Zr2846   2.378   1_565  S
O2831      C2854   1.289       .  A
O2832      C2855   1.280   1_554  A
O2832     Zr2847   2.379       .  S
O2833      C2856   1.294       .  A
O2834      C2857   1.281       .  A
O2835      C2858   1.290       .  A
O2836      C2857   1.277       .  A
O2836     Zr2846   2.378       .  S
O2837      C2858   1.306       .  A
O2837     Zr3315   2.512       .  S
O2838      C3321   1.294       .  A
O2839      C2856   1.300       .  A
O2839     Zr2845   2.469   1_655  S
O2840      C3323   1.290       .  A
O2841      C2854   1.294   1_554  A
O2841     Zr2844   2.451       .  S
O2842      C2851   1.301       .  A
O2842     Zr2848   2.481   1_565  S
O2843      C2852   1.293       .  A
Zr2844     O3296   2.345   1_554  S
Zr2844     O3330   2.347   1_554  S
Zr2845     O3277   2.416   1_455  S
Zr2845     O3287   2.312   1_455  S
Zr2845     O2860   2.262   1_455  S
Zr2846     O3282   2.482   1_545  S
Zr2846     O3293   2.274   1_545  S
Zr2846     O2850   2.366   1_545  S
Zr2847     O3305   2.502   1_554  S
Zr2847     O3317   2.337   1_554  S
Zr2848     O2862   2.308   1_545  S
O2849     Zr3315   2.361       .  S
C2852      C3211   1.501       .  S
C2853      O3306   1.293       .  A
C2853      C3161   1.468       .  S
C2854      C3181   1.489       .  S
C2855      O3308   1.285       .  A
C2855      C3188   1.497       .  S
C2856      C3168   1.504       .  S
C2857      C3198   1.420       .  S
C2858      C3218   1.506       .  S
H2859      O2860   0.940       .  S
H2861      O2862   0.960       .  S
O2862     Zr3312   2.359       .  S
C2863      C2874   1.544       .  S
C2863      C2864   1.409       .  A
C2863      C2868   1.470       .  A
C2864      C2865   1.387       .  A
C2864      H2869   1.085       .  S
C2865      C3268   1.507       .  S
C2865      C2866   1.387       .  A
C2866      C2867   1.410       .  A
C2866      H2870   1.085       .  S
C2867      C3067   1.545       .  S
C2867      C2868   1.480       .  A
C2868      H2871   1.082       .  S
O2872     Zr2884   2.502   1_455  S
O2873      C2874   1.298       .  A
O2873     Zr2910   2.503       .  S
O2875     Zr2887   2.541       .  S
O2876      C2877   1.294       .  A
O2876     Zr2911   2.485       .  S
C2877      C2988   1.546       .  S
O2878     Zr2887   2.519       .  S
O2879      C2880   1.309       .  A
O2879     Zr2910   2.551       .  S
C2880      C2979   1.568       .  S
O2881     Zr2884   2.507       .  S
O2882      C2883   1.327   1_565  A
O2882     Zr2911   2.597       .  S
Zr2884     O2890   2.348       .  S
Zr2884     O2891   2.347       .  S
Zr2884     O2885   2.421       .  S
Zr2884     O2886   2.391       .  S
O2885      H2928   0.990       .  S
O2886      H2927   0.977   1_655  S
O2886      H2931   0.983       .  S
Zr2887     O2891   2.327       .  S
Zr2887     O2890   2.355       .  S
Zr2887     O2888   2.419       .  S
Zr2887     O2889   2.370       .  S
O2888      H2929   0.989       .  S
O2888      H2932   0.986       .  S
O2889      H2922   0.991       .  S
O2891      H2918   0.963       .  S
O2892     Zr2904   2.496       .  S
O2893      C2894   1.329   1_655  A
O2893     Zr2911   2.605       .  S
O2895     Zr2907   2.487       .  S
O2896      C2897   1.313       .  A
O2896     Zr2910   2.525       .  S
C2897      C2970   1.548       .  S
O2898     Zr2907   2.485       .  S
O2899      C2900   1.299       .  A
O2899     Zr2911   2.495       .  S
C2900      C2961   1.528       .  S
O2901     Zr2904   2.446       .  S
O2902      C2903   1.306       .  A
O2902     Zr2910   2.521       .  S
C2903      C2952   1.501       .  S
Zr2904     O2912   2.326       .  S
Zr2904     O2913   2.358       .  S
Zr2904     O2905   2.436       .  S
Zr2904     O2906   2.382       .  S
O2905      H2925   0.986       .  S
O2905      H2930   0.989       .  S
O2906      H2926   0.978       .  S
Zr2907     O2913   2.347       .  S
Zr2907     O2912   2.319       .  S
Zr2907     O2908   2.432       .  S
Zr2907     O2909   2.310       .  S
O2908      H2924   0.988       .  S
O2909      H2923   0.987       .  S
O2909      H2933   0.985       .  S
Zr2910     O2915   2.383       .  S
Zr2910     O2916   2.413       .  S
Zr2911     O2914   2.371       .  S
Zr2911     O2917   2.427       .  S
O2912      H2920   0.962       .  S
O2915      H2919   0.966       .  S
O2916      H2921   0.966       .  S
C2934      C2935   1.411       .  A
C2934      C2939   1.479       .  A
C2935      C2936   1.409       .  A
C2935      H2940   1.083       .  S
C2936      C3261   1.526       .  S
C2936      C2937   1.398       .  A
C2937      C2938   1.408       .  A
C2937      H2941   1.084       .  S
C2938      C3005   1.553       .  S
C2938      C2939   1.480       .  A
C2939      H2942   1.082       .  S
C2943      C2944   1.413       .  A
C2943      C2948   1.483       .  A
C2944      C2945   1.414       .  A
C2944      H2949   1.083       .  S
C2945      C3251   1.527       .  S
C2945      C2946   1.391       .  A
C2946      C2947   1.408       .  A
C2946      H2950   1.083       .  S
C2947      C3061   1.553       .  S
C2947      C2948   1.479       .  A
C2948      H2951   1.081       .  S
C2952      C2953   1.408       .  A
C2952      C2957   1.442       .  A
C2953      C2954   1.387       .  A
C2953      H2958   1.073       .  S
C2954      C3241   1.516       .  S
C2954      C2955   1.401       .  A
C2955      C2956   1.415       .  A
C2955      H2959   1.085       .  S
C2956      C2999   1.510       .  S
C2956      C2957   1.444       .  A
C2957      H2960   1.082       .  S
C2961      C2962   1.408   1_655  A
C2961      C2966   1.467       .  A
C2962      C2963   1.382       .  A
C2962      H2967   1.084       .  S
C2963      C3228   1.525       .  S
C2963      C2964   1.384       .  A
C2964      C2965   1.407   1_455  A
C2964      H2968   1.081       .  S
C2965      C3081   1.538       .  S
C2965      C2966   1.475       .  A
C2966      H2969   1.082       .  S
C2970      C2971   1.403       .  A
C2970      C2975   1.469       .  A
C2971      C2972   1.387       .  A
C2971      H2976   1.083       .  S
C2972      C3221   1.526       .  S
C2972      C2973   1.415       .  A
C2973      C2974   1.416       .  A
C2973      H2977   1.081       .  S
C2974      C2975   1.468       .  A
C2975      H2978   1.081       .  S
C2979      C2980   1.418       .  A
C2979      C2984   1.476       .  A
C2980      C2981   1.419       .  A
C2980      H2985   1.084       .  S
C2981      C3208   1.531       .  S
C2981      C2982   1.389       .  A
C2982      C2983   1.405       .  A
C2982      H2986   1.083       .  S
C2983      C2984   1.477       .  A
C2984      H2987   1.082       .  S
C2988      C2989   1.407   1_565  A
C2988      C2993   1.479       .  A
C2989      C2990   1.385       .  A
C2989      H2994   1.083       .  S
C2990      C3201   1.513       .  S
C2990      C2991   1.377       .  A
C2991      C2992   1.403   1_545  A
C2991      H2995   1.085       .  S
C2992      C3025   1.535       .  S
C2992      C2993   1.471       .  A
C2993      H2996   1.083       .  S
O2997     Zr3009   2.462       .  S
O2998      C2999   1.289       .  A
O2998     Zr3035   2.467       .  S
O3000      C3470   1.292       .  A
O3000     Zr3012   2.519   1_556  S
O3001      C3002   1.293       .  A
O3001     Zr3036   2.512       .  S
C3002      O3468   1.293       .  A
C3002      C3152   1.551       .  S
O3003     Zr3012   2.515       .  S
O3004      C3005   1.309       .  A
O3004     Zr3035   2.547       .  S
O3006      C3476   1.293   1_554  A
O3006     Zr3009   2.488       .  S
O3007      C3008   1.305       .  A
O3007     Zr3036   2.488       .  S
C3008      O3474   1.291       .  A
C3008      C3598   1.528       .  S
Zr3009     O3015   2.377       .  S
Zr3009     O3016   2.348       .  S
Zr3009     O3507   2.367   1_554  S
Zr3009     O3010   2.443       .  S
Zr3009     O3011   2.433       .  S
O3010      H3053   0.990       .  S
O3011      H3052   0.984       .  S
O3011      H3056   0.986       .  S
Zr3012     O3016   2.370       .  S
Zr3012     O3015   2.337       .  S
Zr3012     O3510   2.402   1_554  S
Zr3012     O3013   2.440       .  S
Zr3012     O3014   2.429       .  S
O3013      H3054   0.989       .  S
O3013      H3057   0.984       .  S
O3014      H3047   0.988       .  S
O3016     Zr3504   2.412   1_554  S
O3016      H3043   0.966       .  S
O3017     Zr3029   2.492       .  S
O3018      C3019   1.314       .  A
O3018     Zr3036   2.572       .  S
O3020      C3490   1.292       .  A
O3020     Zr3032   2.493       .  S
O3021      C3022   1.305   1_554  A
O3021     Zr3035   2.497       .  S
C3022      O3488   1.297       .  A
C3022      C3139   1.547   1_556  S
O3023     Zr3032   2.541       .  S
O3024      C3025   1.291       .  A
O3024     Zr3036   2.476       .  S
O3026      C3496   1.289       .  A
O3026     Zr3029   2.515       .  S
O3027      C3028   1.290       .  A
O3027     Zr3035   2.494       .  S
C3028      O3494   1.287   1_554  A
C3028      C3121   1.540       .  S
Zr3029     O3037   2.356       .  S
Zr3029     O3038   2.364       .  S
Zr3029     O3509   2.369       .  S
Zr3029     O3030   2.432       .  S
Zr3029     O3031   2.430       .  S
O3030      H3050   0.989       .  S
O3030      H3055   0.985       .  S
O3031      H3051   0.985       .  S
Zr3032     O3038   2.400       .  S
Zr3032     O3037   2.355       .  S
Zr3032     O3508   2.412       .  S
Zr3032     O3033   2.431       .  S
Zr3032     O3034   2.401       .  S
O3033      H3049   0.989       .  S
O3034      H3048   0.985       .  S
O3034      H3058   0.989       .  S
Zr3035     O3506   2.396   1_554  S
Zr3035     O3040   2.367       .  S
Zr3035     O3041   2.435       .  S
Zr3036     O3484   2.411       .  S
Zr3036     O3039   2.382       .  S
Zr3036     O3042   2.437       .  S
O3037      H3045   0.962       .  S
O3038     Zr3503   2.395       .  S
O3039     Zr3477   2.368       .  S
O3040     Zr3500   2.364   1_554  S
O3040      H3044   0.962       .  S
O3041     Zr3497   2.371   1_554  S
O3041      H3046   0.966       .  S
O3042     Zr3480   2.400       .  S
O3059     Zr3071   2.499       .  S
O3060      C3061   1.310       .  A
O3060     Zr3097   2.555       .  S
O3062      C3532   1.305   1_554  A
O3062     Zr3074   2.521       .  S
O3063      C3064   1.303       .  A
O3063     Zr3098   2.524       .  S
C3064      O3530   1.305       .  A
C3064      C3611   1.551       .  S
O3065     Zr3074   2.489   1_455  S
O3066      C3067   1.292       .  A
O3066     Zr3097   2.487       .  S
O3068      C3538   1.295       .  A
O3068     Zr3071   2.531   1_556  S
O3069      C3070   1.288       .  A
O3069     Zr3098   2.495       .  S
C3070      O3536   1.295       .  A
C3070      C3148   1.548       .  S
Zr3071     O3077   2.336       .  S
Zr3071     O3078   2.374       .  S
Zr3071     O3569   2.379   1_554  S
Zr3071     O3072   2.448       .  S
Zr3071     O3073   2.439       .  S
O3072      H3115   0.989       .  S
O3073      H3114   0.987   1_655  S
O3073      H3118   0.973       .  S
Zr3074     O3078   2.358       .  S
Zr3074     O3077   2.346       .  S
Zr3074     O3572   2.369   1_554  S
Zr3074     O3075   2.422       .  S
Zr3074     O3076   2.404       .  S
O3075      H3116   0.988       .  S
O3075      H3119   0.987       .  S
O3076      H3109   0.988   1_655  S
O3078     Zr3566   2.428   1_554  S
O3078      H3105   0.966       .  S
O3079     Zr3091   2.473       .  S
O3080      C3081   1.291       .  A
O3080     Zr3098   2.490       .  S
O3082      C3552   1.297       .  A
O3082     Zr3094   2.474       .  S
O3083      C3084   1.302       .  A
O3083     Zr3097   2.505       .  S
C3084      O3550   1.295       .  A
C3084      C3123   1.506       .  S
O3085     Zr3094   2.509       .  S
O3086      C3087   1.316   1_655  A
O3086     Zr3098   2.550       .  S
O3088      C3558   1.293       .  A
O3088     Zr3091   2.459       .  S
O3089      C3090   1.298       .  A
O3089     Zr3097   2.502       .  S
C3090      O3556   1.293   1_554  A
C3090      C3134   1.522   1_554  S
Zr3091     O3099   2.343       .  S
Zr3091     O3100   2.372       .  S
Zr3091     O3571   2.378       .  S
Zr3091     O3092   2.444       .  S
Zr3091     O3093   2.414       .  S
O3092      H3112   0.987       .  S
O3092      H3117   0.988       .  S
O3093      H3113   0.989       .  S
Zr3094     O3100   2.371       .  S
Zr3094     O3099   2.349       .  S
Zr3094     O3570   2.379       .  S
Zr3094     O3095   2.410       .  S
Zr3094     O3096   2.405       .  S
O3095      H3111   0.990       .  S
O3096      H3110   0.988       .  S
O3096      H3120   0.987       .  S
Zr3097     O3568   2.404   1_554  S
Zr3097     O3102   2.425       .  S
Zr3097     O3103   2.386       .  S
Zr3098     O3546   2.436       .  S
Zr3098     O3101   2.433       .  S
Zr3098     O3104   2.386       .  S
O3099      H3107   0.962       .  S
O3100     Zr3565   2.415       .  S
O3101     Zr3539   2.381       .  S
O3102     Zr3562   2.392   1_554  S
O3102      H3106   0.964       .  S
O3103     Zr3559   2.362   1_554  S
O3103      H3108   0.962       .  S
O3104     Zr3542   2.386       .  S
C3121      C3122   1.453       .  A
C3121      C3126   1.422   1_554  A
C3122      C3123   1.454       .  A
C3122      H3127   1.082       .  S
C3123      C3124   1.406   1_554  A
C3124      C3125   1.382       .  A
C3124      H3128   1.082       .  S
C3125      C3191   1.526       .  S
C3125      C3126   1.421       .  A
C3126      H3129   1.084       .  S
C3130      C3476   1.525       .  S
C3130      C3131   1.416       .  A
C3130      C3135   1.456   1_556  A
C3131      C3600   1.386       .  A
C3131      H3604   1.082       .  S
C3132      C3646   1.527       .  S
C3132      C3599   1.387       .  A
C3132      C3601   1.402       .  A
C3133      C3600   1.399       .  A
C3133      C3134   1.421       .  A
C3133      H3605   1.084       .  S
C3134      C3135   1.455   1_556  A
C3135      H3138   1.082       .  S
H3136      C3599   1.082       .  S
H3137      C3601   1.084       .  S
C3139      C3140   1.411       .  A
C3139      C3144   1.463   1_554  A
C3140      C3609   1.393       .  A
C3140      H3613   1.083       .  S
C3141      C3171   1.525       .  S
C3141      C3608   1.389       .  A
C3141      C3610   1.408       .  A
C3142      C3609   1.406       .  A
C3142      C3143   1.410       .  A
C3142      H3146   1.084       .  S
C3143      C3532   1.539   1_554  S
C3143      C3144   1.464   1_554  A
C3144      H3147   1.082       .  S
H3145      C3608   1.083       .  S
C3148      C3149   1.414       .  A
C3148      C3153   1.479       .  A
C3149      C3150   1.397       .  A
C3149      H3154   1.085       .  S
C3150      C3158   1.529       .  S
C3150      C3151   1.398       .  A
C3151      C3152   1.415       .  A
C3151      H3155   1.085       .  S
C3152      C3153   1.478       .  A
C3153      H3156   1.081       .  S
C3157      C3158   1.389       .  A
C3157      C3162   1.407       .  A
C3157      F3632   1.335       .  S
C3158      C3159   1.388       .  A
C3159      C3160   1.408       .  A
C3159      F3166   1.342       .  S
C3160      C3161   1.385       .  A
C3160      F3165   1.353       .  S
C3161      C3162   1.373       .  A
C3162      F3631   1.350       .  S
F3163      C3630   1.350   1_556  S
F3164      C3625   1.336       .  S
C3167      C3168   1.416       .  A
C3167      C3172   1.409       .  A
C3167      F3174   1.349       .  S
C3168      C3637   1.414       .  A
C3169      C3636   1.414       .  A
C3169      C3170   1.406       .  A
C3169      F3176   1.349       .  S
C3170      C3639   1.397       .  A
C3170      F3175   1.351       .  S
C3171      C3638   1.389       .  A
C3171      C3172   1.409       .  A
C3172      F3173   1.354       .  S
C3177      C3178   1.410       .  A
C3177      C3182   1.411       .  A
C3177      F3184   1.353       .  S
C3178      C3600   1.527       .  S
C3178      C3647   1.394       .  A
C3179      C3646   1.396       .  A
C3179      C3180   1.389       .  A
C3179      F3186   1.339       .  S
C3180      C3649   1.402       .  A
C3180      F3185   1.351       .  S
C3181      C3648   1.402       .  A
C3181      C3182   1.414       .  A
C3182      F3183   1.349       .  S
C3187      C3188   1.392       .  A
C3187      C3192   1.395       .  A
C3187      F3194   1.348   1_556  S
C3188      C3657   1.420       .  A
C3189      C3656   1.405       .  A
C3189      C3190   1.428       .  A
C3189      F3196   1.340       .  S
C3190      C3659   1.408       .  A
C3190      F3195   1.354       .  S
C3191      C3658   1.411       .  A
C3191      C3192   1.364       .  A
C3192      F3193   1.320       .  S
C3197      C3202   1.407       .  A
C3197      F3204   1.356       .  S
C3198      C3199   1.359       .  A
C3199      C3200   1.343       .  A
C3199      F3206   1.369   1_545  S
C3200      C3201   1.442       .  A
C3200      F3205   1.336   1_545  S
C3202      F3203   1.357       .  S
C3207      C3212   1.419       .  A
C3207      F3214   1.356       .  S
C3208      C3209   1.391       .  A
C3209      C3210   1.406       .  A
C3209      F3216   1.350       .  S
C3210      C3211   1.418       .  A
C3210      F3215   1.343       .  S
C3212      F3213   1.350       .  S
C3217      C3222   1.402       .  A
C3217      F3224   1.325       .  S
C3218      C3219   1.416       .  A
C3219      C3220   1.411       .  A
C3219      F3226   1.353       .  S
C3220      C3221   1.416       .  A
C3220      F3225   1.356       .  S
C3222      F3223   1.352       .  S
C3227      C3232   1.413       .  A
C3227      F3234   1.357       .  S
C3228      C3229   1.438       .  A
C3229      C3230   1.359       .  A
C3229      F3236   1.339   1_455  S
C3230      C3231   1.368       .  A
C3230      F3235   1.365   1_455  S
C3232      F3233   1.356       .  S
C3237      C3242   1.429       .  A
C3237      F3244   1.352       .  S
C3238      C3239   1.388       .  A
C3239      C3240   1.393       .  A
C3239      F3246   1.355       .  S
C3240      C3241   1.392       .  A
C3240      F3245   1.352       .  S
C3242      F3243   1.354       .  S
C3247      C3248   1.398       .  A
C3247      C3252   1.409       .  A
C3247      F3254   1.330       .  S
C3249      C3250   1.422       .  A
C3249      F3256   1.337       .  S
C3250      F3255   1.352       .  S
C3251      C3252   1.388       .  A
C3252      F3253   1.349       .  S
C3257      C3258   1.400       .  A
C3257      C3262   1.413       .  A
C3257      F3264   1.340       .  S
C3259      C3260   1.410       .  A
C3259      F3266   1.332       .  S
C3260      F3265   1.352       .  S
C3261      C3262   1.397       .  A
C3262      F3263   1.356       .  S
C3267      C3272   1.414       .  A
C3267      F3274   1.357       .  S
C3268      C3269   1.429       .  A
C3269      C3270   1.337       .  A
C3269      F3276   1.337       .  S
C3270      C3271   1.369       .  A
C3270      F3275   1.369       .  S
C3272      F3273   1.356       .  S
O3277      C3288   1.288       .  A
O3278      C3289   1.296       .  A
O3279      C3290   1.291       .  A
O3280      C3291   1.271       .  A
O3281      C3291   1.304       .  A
O3281     Zr3315   2.488       .  S
O3282      C3290   1.297       .  A
O3283      C3289   1.284       .  A
O3284      C3288   1.269       .  A
O3284     Zr3285   2.358   1_655  S
Zr3285     O3287   2.282   1_455  S
O3286     Zr3312   2.327       .  S
C3291      C3706   1.489       .  S
H3292      O3293   0.956       .  S
H3294      O3295   0.966       .  S
O3295     Zr3315   2.389       .  S
O3296      C3319   1.273       .  A
O3297      C3320   1.302       .  A
O3298      C3321   1.283       .  A
O3298     Zr3314   2.375   1_566  S
O3299      C3322   1.290       .  A
O3300      C3323   1.286       .  A
O3300     Zr3315   2.404       .  S
O3301      C3324   1.295       .  A
O3302      C3325   1.281       .  A
O3303      C3326   1.284       .  A
O3304      C3325   1.276       .  A
O3304     Zr3314   2.398   1_556  S
O3305      C3326   1.304       .  A
O3307      C3324   1.296       .  A
O3307     Zr3313   2.442       .  S
O3309      C3322   1.291       .  A
O3309     Zr3312   2.435       .  S
O3310      C3319   1.299       .  A
O3310     Zr3316   2.468   1_565  S
O3311      C3320   1.289       .  A
Zr3313     O3328   2.261   1_554  S
Zr3314     O3318   2.367   1_544  S
Zr3316     O3330   2.295   1_545  S
C3320      C3679   1.496       .  S
C3321      C3629   1.467       .  S
C3322      C3649   1.485       .  S
C3323      C3656   1.510       .  S
C3324      C3636   1.491       .  S
C3325      C3666   1.421       .  S
C3326      C3686   1.502       .  S
H3327      O3328   0.952       .  S
H3329      O3330   0.960       .  S
C3331      C3342   1.576       .  S
C3331      C3332   1.401       .  A
C3331      C3336   1.502       .  A
C3332      C3333   1.381       .  A
C3332      H3337   1.085       .  S
C3333      C3736   1.509       .  S
C3333      C3334   1.382       .  A
C3334      C3335   1.406       .  A
C3334      H3338   1.084       .  S
C3335      C3535   1.572       .  S
C3335      C3336   1.493       .  A
C3336      H3339   1.083       .  S
O3340     Zr3352   2.500       .  S
O3341      C3342   1.298       .  A
O3341     Zr3378   2.519       .  S
O3343     Zr3355   2.527       .  S
O3344      C3345   1.292       .  A
O3344     Zr3379   2.474       .  S
C3345      C3456   1.538       .  S
O3346     Zr3355   2.504       .  S
O3347      C3348   1.309       .  A
O3347     Zr3378   2.545       .  S
C3348      C3447   1.554       .  S
O3349     Zr3352   2.513       .  S
O3350      C3351   1.325   1_565  A
O3350     Zr3379   2.590       .  S
Zr3352     O3358   2.347       .  S
Zr3352     O3359   2.327       .  S
Zr3352     O3353   2.420       .  S
Zr3352     O3354   2.393       .  S
O3353      H3396   0.990       .  S
O3354      H3395   0.986       .  S
O3354      H3399   0.981       .  S
Zr3355     O3359   2.323       .  S
Zr3355     O3358   2.362       .  S
Zr3355     O3356   2.407       .  S
Zr3355     O3357   2.399       .  S
O3356      H3397   0.989       .  S
O3356      H3400   0.984       .  S
O3357      H3390   0.991       .  S
O3359      H3386   0.956       .  S
O3360     Zr3372   2.494       .  S
O3361      C3362   1.328   1_655  A
O3361     Zr3379   2.606       .  S
O3363     Zr3375   2.509       .  S
O3364      C3365   1.305       .  A
O3364     Zr3378   2.490       .  S
C3365      C3438   1.545       .  S
O3366     Zr3375   2.478       .  S
O3367      C3368   1.298       .  A
O3367     Zr3379   2.489       .  S
C3368      C3429   1.525       .  S
O3369     Zr3372   2.436       .  S
O3370      C3371   1.311       .  A
O3370     Zr3378   2.546       .  S
C3371      C3420   1.514       .  S
Zr3372     O3380   2.341       .  S
Zr3372     O3381   2.370       .  S
Zr3372     O3373   2.428       .  S
Zr3372     O3374   2.387       .  S
O3373      H3393   0.987       .  S
O3373      H3398   0.989       .  S
O3374      H3394   0.985       .  S
Zr3375     O3381   2.360       .  S
Zr3375     O3380   2.363       .  S
Zr3375     O3376   2.431       .  S
Zr3375     O3377   2.357       .  S
O3376      H3392   0.989       .  S
O3377      H3391   0.986       .  S
O3377      H3401   0.986       .  S
Zr3378     O3383   2.389       .  S
Zr3378     O3384   2.389       .  S
Zr3379     O3382   2.369       .  S
Zr3379     O3385   2.427       .  S
O3380      H3388   0.964       .  S
O3383      H3387   0.966       .  S
O3384      H3389   0.963       .  S
C3402      C3403   1.387       .  A
C3402      C3407   1.512       .  A
C3403      C3404   1.358       .  A
C3403      H3408   1.074       .  S
C3404      C3729   1.517       .  S
C3404      C3405   1.350       .  A
C3405      C3406   1.391       .  A
C3405      H3409   1.084       .  S
C3406      C3473   1.538       .  S
C3406      C3407   1.517       .  A
C3407      H3410   1.081       .  S
C3411      C3412   1.412       .  A
C3411      C3416   1.471       .  A
C3412      C3413   1.391       .  A
C3412      H3417   1.082       .  S
C3413      C3719   1.525       .  S
C3413      C3414   1.399       .  A
C3414      C3415   1.419       .  A
C3414      H3418   1.081       .  S
C3415      C3529   1.547       .  S
C3415      C3416   1.469       .  A
C3416      H3419   1.082       .  S
C3420      C3421   1.413       .  A
C3420      C3425   1.451       .  A
C3421      C3422   1.387       .  A
C3421      H3426   1.075       .  S
C3422      C3709   1.521       .  S
C3422      C3423   1.400       .  A
C3423      C3424   1.414       .  A
C3423      H3427   1.085       .  S
C3424      C3467   1.524       .  S
C3424      C3425   1.452       .  A
C3425      H3428   1.082       .  S
C3429      C3430   1.408   1_655  A
C3429      C3434   1.465       .  A
C3430      C3431   1.382       .  A
C3430      H3435   1.083       .  S
C3431      C3696   1.525       .  S
C3431      C3432   1.385       .  A
C3432      C3433   1.406   1_455  A
C3432      H3436   1.081       .  S
C3433      C3549   1.535       .  S
C3433      C3434   1.472       .  A
C3434      H3437   1.082       .  S
C3438      C3439   1.410       .  A
C3438      C3443   1.465       .  A
C3439      C3440   1.387       .  A
C3439      H3444   1.083       .  S
C3440      C3689   1.524       .  S
C3440      C3441   1.408       .  A
C3441      C3442   1.415       .  A
C3441      H3445   1.083       .  S
C3442      C3443   1.466       .  A
C3443      H3446   1.081       .  S
C3447      C3448   1.416       .  A
C3447      C3452   1.467       .  A
C3448      C3449   1.414       .  A
C3448      H3453   1.084       .  S
C3449      C3676   1.527       .  S
C3449      C3450   1.388       .  A
C3450      C3451   1.405       .  A
C3450      H3454   1.084       .  S
C3451      C3452   1.468       .  A
C3452      H3455   1.082       .  S
C3456      C3457   1.407   1_565  A
C3456      C3461   1.473       .  A
C3457      C3458   1.385       .  A
C3457      H3462   1.084       .  S
C3458      C3669   1.515       .  S
C3458      C3459   1.378       .  A
C3459      C3460   1.404   1_545  A
C3459      H3463   1.086       .  S
C3460      C3493   1.528       .  S
C3460      C3461   1.466       .  A
C3461      H3464   1.083       .  S
O3465     Zr3477   2.470       .  S
O3466      C3467   1.289       .  A
O3466     Zr3503   2.485       .  S
O3468     Zr3480   2.522       .  S
O3469      C3470   1.292       .  A
O3469     Zr3504   2.509       .  S
C3470      C3620   1.550       .  S
O3471     Zr3480   2.512       .  S
O3472      C3473   1.299       .  A
O3472     Zr3503   2.494       .  S
O3474     Zr3477   2.475       .  S
O3475      C3476   1.299       .  A
O3475     Zr3504   2.462       .  S
Zr3477     O3483   2.373       .  S
Zr3477     O3484   2.350       .  S
Zr3477     O3478   2.444       .  S
Zr3477     O3479   2.436       .  S
O3478      H3521   0.990       .  S
O3479      H3520   0.980       .  S
O3479      H3524   0.986       .  S
Zr3480     O3484   2.370       .  S
Zr3480     O3483   2.335       .  S
Zr3480     O3481   2.439       .  S
Zr3480     O3482   2.435       .  S
O3481      H3522   0.988       .  S
O3481      H3525   0.984       .  S
O3482      H3515   0.988       .  S
O3484      H3511   0.966       .  S
O3485     Zr3497   2.458       .  S
O3486      C3487   1.315       .  A
O3486     Zr3504   2.575       .  S
O3488     Zr3500   2.513       .  S
O3489      C3490   1.310       .  A
O3489     Zr3503   2.519       .  S
C3490      C3607   1.550       .  S
O3491     Zr3500   2.494       .  S
O3492      C3493   1.290       .  A
O3492     Zr3504   2.468       .  S
O3494     Zr3497   2.487       .  S
O3495      C3496   1.294       .  A
O3495     Zr3503   2.505       .  S
C3496      C3589   1.548       .  S
Zr3497     O3505   2.336       .  S
Zr3497     O3506   2.346       .  S
Zr3497     O3498   2.464       .  S
Zr3497     O3499   2.427       .  S
O3498      H3518   0.987       .  S
O3498      H3523   0.987       .  S
O3499      H3519   0.986       .  S
Zr3500     O3506   2.369       .  S
Zr3500     O3505   2.346       .  S
Zr3500     O3501   2.432       .  S
Zr3500     O3502   2.349       .  S
O3501      H3517   0.989       .  S
O3502      H3516   0.985       .  S
O3502      H3526   0.983       .  S
Zr3503     O3508   2.424       .  S
Zr3503     O3509   2.414       .  S
Zr3504     O3507   2.376       .  S
Zr3504     O3510   2.433       .  S
O3505      H3513   0.959       .  S
O3508      H3512   0.966       .  S
O3509      H3514   0.965       .  S
O3527     Zr3539   2.503       .  S
O3528      C3529   1.316       .  A
O3528     Zr3565   2.583       .  S
O3530     Zr3542   2.525       .  S
O3531      C3532   1.301       .  A
O3531     Zr3566   2.509       .  S
O3533     Zr3542   2.497       .  S
O3534      C3535   1.304       .  A
O3534     Zr3565   2.540       .  S
O3536     Zr3539   2.531       .  S
O3537      C3538   1.287       .  A
O3537     Zr3566   2.490       .  S
C3538      C3616   1.547       .  S
Zr3539     O3545   2.335       .  S
Zr3539     O3546   2.375       .  S
Zr3539     O3540   2.449       .  S
Zr3539     O3541   2.443       .  S
O3540      H3583   0.989       .  S
O3541      H3582   0.987   1_655  S
O3541      H3586   0.973       .  S
Zr3542     O3546   2.360       .  S
Zr3542     O3545   2.344       .  S
Zr3542     O3543   2.417       .  S
Zr3542     O3544   2.393       .  S
O3543      H3584   0.988       .  S
O3543      H3587   0.987       .  S
O3544      H3577   0.986   1_655  S
O3546      H3573   0.966       .  S
O3547     Zr3559   2.466       .  S
O3548      C3549   1.290       .  A
O3548     Zr3566   2.484       .  S
O3550     Zr3562   2.467   1_554  S
O3551      C3552   1.311       .  A
O3551     Zr3565   2.535       .  S
C3552      C3591   1.519       .  S
O3553     Zr3562   2.495       .  S
O3554      C3555   1.312   1_655  A
O3554     Zr3566   2.532       .  S
O3556     Zr3559   2.457       .  S
O3557      C3558   1.303       .  A
O3557     Zr3565   2.522       .  S
C3558      C3602   1.532       .  S
Zr3559     O3567   2.334       .  S
Zr3559     O3568   2.364       .  S
Zr3559     O3560   2.441       .  S
Zr3559     O3561   2.417       .  S
O3560      H3580   0.987       .  S
O3560      H3585   0.987       .  S
O3561      H3581   0.989       .  S
Zr3562     O3568   2.362       .  S
Zr3562     O3567   2.343       .  S
Zr3562     O3563   2.418       .  S
Zr3562     O3564   2.405       .  S
O3563      H3579   0.989       .  S
O3564      H3578   0.987       .  S
O3564      H3588   0.983       .  S
Zr3565     O3570   2.399       .  S
Zr3565     O3571   2.408       .  S
Zr3566     O3569   2.425       .  S
Zr3566     O3572   2.378       .  S
O3567      H3575   0.963       .  S
O3570      H3574   0.961       .  S
O3571      H3576   0.965       .  S
C3589      C3590   1.460       .  A
C3589      C3594   1.414       .  A
C3590      C3591   1.461       .  A
C3590      H3595   1.082       .  S
C3591      C3592   1.406       .  A
C3592      C3593   1.390       .  A
C3592      H3596   1.086       .  S
C3593      C3659   1.525       .  S
C3593      C3594   1.418       .  A
C3594      H3597   1.084       .  S
C3598      C3599   1.413       .  A
C3598      C3603   1.460       .  A
C3601      C3602   1.422       .  A
C3602      C3603   1.457       .  A
C3603      H3606   1.082       .  S
C3607      C3608   1.410       .  A
C3607      C3612   1.471       .  A
C3609      C3639   1.524       .  S
C3610      C3611   1.413       .  A
C3610      H3614   1.084       .  S
C3611      C3612   1.470       .  A
C3612      H3615   1.082       .  S
C3616      C3617   1.414   1_556  A
C3616      C3621   1.479       .  A
C3617      C3618   1.396       .  A
C3617      H3622   1.085       .  S
C3618      C3626   1.529       .  S
C3618      C3619   1.397       .  A
C3619      C3620   1.416   1_554  A
C3619      H3623   1.085       .  S
C3620      C3621   1.477       .  A
C3621      H3624   1.081       .  S
C3625      C3626   1.389       .  A
C3625      C3630   1.407       .  A
C3626      C3627   1.388       .  A
C3627      C3628   1.406       .  A
C3627      F3634   1.342       .  S
C3628      C3629   1.385   1_554  A
C3628      F3633   1.354   1_554  S
C3629      C3630   1.373   1_556  A
C3635      C3636   1.410       .  A
C3635      C3640   1.409       .  A
C3635      F3642   1.350       .  S
C3637      C3638   1.408       .  A
C3637      F3644   1.338       .  S
C3638      F3643   1.347       .  S
C3639      C3640   1.412       .  A
C3640      F3641   1.356       .  S
C3645      C3646   1.413       .  A
C3645      C3650   1.409       .  A
C3645      F3652   1.355       .  S
C3647      C3648   1.389       .  A
C3647      F3654   1.338       .  S
C3648      F3653   1.350       .  S
C3649      C3650   1.411       .  A
C3650      F3651   1.349       .  S
C3655      C3656   1.391       .  A
C3655      C3660   1.403       .  A
C3655      F3662   1.328       .  S
C3657      C3658   1.432       .  A
C3657      F3664   1.345       .  S
C3658      F3663   1.355       .  S
C3659      C3660   1.379       .  A
C3660      F3661   1.340       .  S
C3665      C3670   1.408       .  A
C3665      F3672   1.356       .  S
C3666      C3667   1.361       .  A
C3667      C3668   1.345       .  A
C3667      F3674   1.368   1_545  S
C3668      C3669   1.442       .  A
C3668      F3673   1.337   1_545  S
C3670      F3671   1.357       .  S
C3675      C3680   1.414       .  A
C3675      F3682   1.357       .  S
C3676      C3677   1.390       .  A
C3677      C3678   1.404       .  A
C3677      F3684   1.347       .  S
C3678      C3679   1.418       .  A
C3678      F3683   1.349       .  S
C3680      F3681   1.347       .  S
C3685      C3690   1.398       .  A
C3685      F3692   1.330       .  S
C3686      C3687   1.416       .  A
C3687      C3688   1.409       .  A
C3687      F3694   1.354       .  S
C3688      C3689   1.414       .  A
C3688      F3693   1.356       .  S
C3690      F3691   1.348       .  S
C3695      C3700   1.414       .  A
C3695      F3702   1.358       .  S
C3696      C3697   1.438       .  A
C3697      C3698   1.358       .  A
C3697      F3704   1.338   1_455  S
C3698      C3699   1.368       .  A
C3698      F3703   1.365   1_455  S
C3700      F3701   1.356       .  S
C3705      C3710   1.427       .  A
C3705      F3712   1.354       .  S
C3706      C3707   1.379       .  A
C3707      C3708   1.398       .  A
C3707      F3714   1.351       .  S
C3708      C3709   1.388       .  A
C3708      F3713   1.348       .  S
C3710      F3711   1.352       .  S
C3715      C3716   1.419       .  A
C3715      C3720   1.407       .  A
C3715      F3722   1.348       .  S
C3717      C3718   1.421       .  A
C3717      F3724   1.336       .  S
C3718      F3723   1.352       .  S
C3719      C3720   1.406       .  A
C3720      F3721   1.356       .  S
C3725      C3726   1.407       .  A
C3725      C3730   1.366       .  A
C3725      F3732   1.335       .  S
C3727      C3728   1.409       .  A
C3727      F3734   1.332       .  S
C3728      F3733   1.351       .  S
C3729      C3730   1.371       .  A
C3730      F3731   1.335       .  S
C3735      C3740   1.406       .  A
C3735      F3742   1.358       .  S
C3736      C3737   1.441       .  A
C3737      C3738   1.336       .  A
C3737      F3744   1.337       .  S
C3738      C3739   1.357       .  A
C3738      F3743   1.372       .  S
C3740      F3741   1.352       .  S
