geometry optimzed in LAMMPS
_audit_creation_date              2020-11-30 
_audit_creation_method            'lammps2cif' 
_symmetry_space_group_name_H-M    'P1' 
_symmetry_Int_Tables_number       1 
_symmetry_cell_setting            triclinic 
loop_ 
_symmetry_equiv_pos_as_xyz 
  x,y,z 
_cell_length_a                    42.53033907059013 
_cell_length_b                    42.44562715487082 
_cell_length_c                    42.413449376839054 
_cell_angle_alpha                 89.02979313998952 
_cell_angle_beta                  89.79588691989319 
_cell_angle_gamma                 90.41576339562853 
loop_ 
_atom_site_label 
_atom_site_type_symbol 
_atom_site_fract_x 
_atom_site_fract_y 
_atom_site_fract_z 
_atom_site_charge 
O1          O  0.55761616  0.36388256  0.49197341    -0.75440
O2          O  0.58329522  0.33092611  0.52459906    -0.54350
C3          C  0.58219597  0.35566549  0.50684490     0.78290
O4          O  0.41487396  0.30903972  0.50009040    -0.60040
O5          O  0.41268407  0.30689667  0.44817334    -0.53070
C6          C  0.40359003  0.31887464  0.47406579     0.70300
O7          O  0.48662511  0.34551374  0.56931600    -0.74600
O8          O  0.53521730  0.32523784  0.57824470    -0.55160
C9          C  0.51155180  0.34200873  0.58602087     0.76300
O10         O  0.50836577  0.33370316  0.40398517    -0.59740
O11         O  0.46359636  0.30475072  0.39800481    -0.52860
C12         C  0.48568447  0.32315525  0.38758408     0.72900
Zr13       Zr  0.52810508  0.33232310  0.45612413     2.54710
O14         O  0.51539427  0.38619419  0.44038061    -0.80310
O15         O  0.57480838  0.33530007  0.42272836    -0.93730
Zr16       Zr  0.46354329  0.32931370  0.51997738     2.64680
O17         O  0.45484093  0.38452234  0.50568209    -0.98680
O18         O  0.42252470  0.34350014  0.55720267    -0.80740
O19         O  0.51771570  0.33501200  0.51059233    -0.84100
O20         O  0.47392359  0.32718312  0.46502462    -2.18810
O21         O  0.52545094  0.24341947  0.40546173    -0.67490
O22         O  0.47240441  0.24321635  0.40293302    -0.52060
C23         C  0.49951153  0.24325955  0.38937683     0.71280
O24         O  0.49254477  0.24139258  0.58455195    -0.60400
O25         O  0.54154021  0.26293489  0.58430403    -0.52380
C26         C  0.51671452  0.25324236  0.59894261     0.73080
O27         O  0.41657078  0.24192893  0.51397403    -0.71790
O28         O  0.41496387  0.24162025  0.46094135    -0.50470
C29         C  0.40087864  0.24286443  0.48776450     0.74470
O30         O  0.59629673  0.24658804  0.48180548    -0.67120
O31         O  0.59690133  0.26964311  0.53004590    -0.54320
C32         C  0.61100385  0.25798189  0.50597410     0.72850
Zr33       Zr  0.54089206  0.23926553  0.46250267     2.77540
O34         O  0.53879804  0.18227221  0.47054981    -0.97870
O35         O  0.57911470  0.21458145  0.42811849    -0.78690
Zr36       Zr  0.47339526  0.23584797  0.52894366     2.70070
O37         O  0.48107717  0.17984198  0.52053750    -0.79940
O38         O  0.44082286  0.20618384  0.56656405    -0.99020
Zr39       Zr  0.54375409  0.29099214  0.53444491     2.21500
Zr40       Zr  0.45967582  0.27521200  0.44791300     2.11130
O41         O  0.48566253  0.23157764  0.47361137    -2.47710
O42         O  0.52886478  0.23937211  0.51794223    -0.79730
O43         O  0.51415286  0.28186973  0.43855912    -0.71930
O44         O  0.48874460  0.28691518  0.54571943    -2.32890
O45         O  0.55554053  0.29030840  0.47958837    -2.29090
O46         O  0.44929295  0.27864778  0.50295831    -0.73690
H47         H  0.46287194  0.34322263  0.45325226     0.78310
H48         H  0.48290519  0.29020840  0.56731153     0.79400
H49         H  0.47783013  0.21201437  0.46527549     0.81620
H50         H  0.57690590  0.29603441  0.47492282     0.79230
H51         H  0.41993160  0.32458584  0.57097915     0.42260
H52         H  0.42661293  0.22204386  0.57567144     0.41230
H53         H  0.49411012  0.17279835  0.53858866     0.40910
H54         H  0.53751671  0.17902686  0.49367464     0.38850
H55         H  0.59144491  0.23235490  0.41887067     0.41980
H56         H  0.57876867  0.31325642  0.41665319     0.36760
H57         H  0.51289958  0.39755288  0.46041412     0.42880
H58         H  0.46029460  0.38700840  0.48310905     0.39290
H59         H  0.51815153  0.17529384  0.46244800     0.44210
H60         H  0.59235070  0.34070369  0.43684939     0.42940
H61         H  0.43173427  0.38706797  0.50644811     0.43070
H62         H  0.42692824  0.19286267  0.55357404     0.43430
O63         O  0.57748052  0.51247135  0.32588485    -0.75440
O64         O  0.58245074  0.46538831  0.30127203    -0.54350
C65         C  0.58847253  0.48451714  0.32363518     0.78290
O66         O  0.43108599  0.53633533  0.30490847    -0.60040
O67         O  0.43492307  0.58167599  0.27542136    -0.53070
C68         C  0.42411514  0.56535353  0.29870033     0.70300
O69         O  0.47969555  0.44186225  0.30896371    -0.74600
O70         O  0.52569304  0.42554918  0.28716454    -0.55160
C71         C  0.50009419  0.42067633  0.30312422     0.76300
O72         O  0.52718148  0.60228124  0.30186890    -0.59740
O73         O  0.48522814  0.61393865  0.27066142    -0.52860
C74         C  0.50617042  0.62100604  0.29111359     0.72900
Zr75       Zr  0.54408488  0.54870237  0.29725400     2.54710
O76         O  0.53428942  0.55854786  0.35278834    -0.80310
O77         O  0.59400754  0.57710198  0.29974263    -0.93730
Zr78       Zr  0.46895125  0.49534729  0.29282810     2.64680
O79         O  0.46464592  0.49216158  0.35004831    -0.98680
O80         O  0.41795785  0.46996860  0.28626589    -0.80740
O81         O  0.52412442  0.49664468  0.30004432    -0.84100
O82         O  0.48965058  0.54679423  0.29144089    -2.18810
O83         O  0.54478211  0.60353762  0.20858984    -0.67490
O84         O  0.49247134  0.60820340  0.20390886    -0.52060
C85         C  0.51970178  0.62081332  0.20666126     0.71280
O86         O  0.49310743  0.42926920  0.20478034    -0.60400
O87         O  0.54121596  0.42283114  0.22689268    -0.52380
C88         C  0.51539517  0.41156259  0.21610581     0.73080
O89         O  0.42587719  0.50735672  0.20522807    -0.71790
O90         O  0.42582923  0.55976111  0.21431091    -0.50470
C91         C  0.41110697  0.53356762  0.20970859     0.74470
O92         O  0.60685425  0.51881582  0.21101196    -0.67120
O93         O  0.60177627  0.47090569  0.23626204    -0.54320
C94         C  0.61845344  0.49333363  0.22348577     0.72850
Zr95       Zr  0.55509253  0.54516328  0.20439819     2.77540
O96         O  0.55405555  0.54015610  0.14723286    -0.97870
O97         O  0.59824258  0.57610886  0.18173983    -0.78690
Zr98       Zr  0.48070185  0.48730645  0.19958968     2.70070
O99         O  0.49190438  0.49747199  0.14400716    -0.79940
O100        O  0.44441259  0.45699253  0.16741996    -0.99020
Zr101      Zr  0.54746417  0.47025121  0.25661263     2.21500
Zr102      Zr  0.47653663  0.56710873  0.24024836     2.11130
O103        O  0.49932298  0.54091212  0.19593634    -2.47710
O104        O  0.53669780  0.49126127  0.20480328    -0.79730
O105        O  0.53195559  0.57101450  0.24734485    -0.71930
O106        O  0.49169489  0.46782731  0.25065121    -2.32890
O107        O  0.56724368  0.52304440  0.25517168    -2.29090
O108        O  0.45806140  0.51453466  0.24221421    -0.73690
H109        H  0.48200665  0.55935979  0.30853323     0.78310
H110        H  0.48240372  0.44723573  0.25280000     0.79400
H111        H  0.49282125  0.55101671  0.17648587     0.81620
H112        H  0.58888285  0.52457206  0.26141371     0.79230
H113        H  0.42058614  0.45680236  0.26740588     0.42260
H114        H  0.43274325  0.44337390  0.18266897     0.41230
H115        H  0.50475276  0.47931838  0.13750839     0.40910
H116        H  0.55179962  0.51728708  0.14359890     0.38850
H117        H  0.60911830  0.58516971  0.20013641     0.41980
H118        H  0.61042547  0.56072689  0.29920390     0.36760
H119        H  0.52435306  0.53887089  0.36093586     0.42880
H120        H  0.47070773  0.51341608  0.35722186     0.39290
H121        H  0.53399072  0.54947546  0.14011774     0.44210
H122        H  0.59481779  0.58496734  0.32157100     0.42940
H123        H  0.44176282  0.49066904  0.35426684     0.43070
H124        H  0.45766740  0.44227423  0.15543430     0.43430
O125        O  0.53102814  0.69965427  0.40405942    -0.75440
O126        O  0.48526346  0.72613653  0.39616240    -0.54350
C127        C  0.50662783  0.70702738  0.38756208     0.78290
O128        O  0.52083427  0.71625241  0.57093564    -0.60040
O129        O  0.56807324  0.74160876  0.57255762    -0.53070
C130        C  0.54631676  0.72455211  0.58481778     0.70300
O131        O  0.44616798  0.69991521  0.49962116    -0.74600
O132        O  0.44245225  0.72036231  0.44978673    -0.55160
C133        C  0.43250659  0.70330237  0.47309064     0.76300
O134        O  0.60363751  0.70160028  0.48172893    -0.59740
O135        O  0.60987713  0.73196822  0.52536207    -0.52860
C136        C  0.61789062  0.70989235  0.50680235     0.72900
Zr137      Zr  0.55632151  0.71344789  0.45383770     2.54710
O138        O  0.54963516  0.65686104  0.46192881    -0.80310
O139        O  0.59837098  0.70490733  0.41585893    -0.93730
Zr140      Zr  0.49395971  0.71940854  0.52096046     2.64680
O141        O  0.50006822  0.66255323  0.52649162    -0.98680
O142        O  0.45435093  0.71953980  0.56249209    -0.80740
O143        O  0.50250898  0.71355037  0.46608949    -0.84100
O144        O  0.54733555  0.71880107  0.50849588    -2.18810
O145        O  0.61458744  0.79707655  0.45980847    -0.67490
O146        O  0.61471585  0.79854763  0.51257321    -0.52060
C147        C  0.62947764  0.79585979  0.48651627     0.71280
O148        O  0.43436196  0.80974534  0.49030519    -0.60400
O149        O  0.43685220  0.79236230  0.44013476    -0.52380
C150        C  0.42110836  0.80081446  0.46424124     0.73080
O151        O  0.50596242  0.80686361  0.56819444    -0.71790
O152        O  0.55871885  0.80169909  0.56898575    -0.50470
C153        C  0.53231629  0.80425761  0.58355397     0.74470
O154        O  0.53910740  0.80401515  0.38842558    -0.67120
O155        O  0.48956067  0.78309880  0.38858587    -0.54320
C156        C  0.51422027  0.79358966  0.37416236     0.72850
Zr157      Zr  0.55859957  0.80773141  0.44390464     2.77540
O158        O  0.55555644  0.86432306  0.45186690    -0.97870
O159        O  0.59380211  0.83285081  0.40549180    -0.78690
Zr160      Zr  0.49025907  0.81284161  0.51086745     2.70070
O161        O  0.50230193  0.86826341  0.50078352    -0.79940
O162        O  0.45441816  0.84397610  0.54242708    -0.99020
Zr163      Zr  0.48298109  0.75978842  0.44071653     2.21500
Zr164      Zr  0.56734329  0.76906759  0.52335735     2.11130
O165        O  0.54586691  0.81498743  0.49854552    -2.47710
O166        O  0.50313370  0.80986033  0.45570603    -0.79730
O167        O  0.57877610  0.76222418  0.46912423    -0.71930
O168        O  0.47034572  0.76296834  0.49535091    -2.32890
O169        O  0.53744359  0.75859884  0.42849829    -2.29090
O170        O  0.51311635  0.76868509  0.53612184    -0.73690
H171        H  0.55675691  0.70174114  0.52029089     0.78310
H172        H  0.44835854  0.75961697  0.49992623     0.79400
H173        H  0.55569481  0.83371109  0.50676299     0.81620
H174        H  0.54263622  0.75426848  0.40695203     0.79230
H175        H  0.44891964  0.74203930  0.56472853     0.42260
H176        H  0.44391273  0.82845253  0.55670165     0.41230
H177        H  0.48929267  0.87399897  0.48227237     0.40910
H178        H  0.57760624  0.87120984  0.45497781     0.38850
H179        H  0.60478479  0.81515404  0.39537913     0.41980
H180        H  0.59394448  0.71975742  0.39819711     0.36760
H181        H  0.52743321  0.65260531  0.45636739     0.42880
H182        H  0.51935193  0.65965463  0.53919185     0.39290
H183        H  0.54964830  0.87326101  0.43102119     0.44210
H184        H  0.59398895  0.68379498  0.40723992     0.42940
H185        H  0.48274614  0.65581863  0.54079603     0.43070
H186        H  0.46810468  0.85648343  0.55639800     0.43430
O187        O  0.68870704  0.44603381  0.51569248    -0.75440
O188        O  0.71124226  0.43268382  0.46875752    -0.54350
C189        C  0.69201195  0.42838682  0.49180991     0.78290
O190        O  0.70272975  0.60423688  0.48048837    -0.60040
O191        O  0.72810314  0.60863970  0.52753909    -0.53070
C192        C  0.70974222  0.61853184  0.50578173     0.70300
O193        O  0.68011713  0.51665879  0.42723027    -0.74600
O194        O  0.70720886  0.47132642  0.41948280    -0.55160
C195        C  0.68391593  0.48970658  0.41435157     0.76300
O196        O  0.70487839  0.52606125  0.58236731    -0.59740
O197        O  0.73404522  0.57121920  0.58119443    -0.52860
C198        C  0.71433984  0.55215616  0.59425011     0.72900
Zr199      Zr  0.70921181  0.49410607  0.53573302     2.54710
O200        O  0.65270758  0.50263629  0.53799379    -0.80310
O201        O  0.70591597  0.45790355  0.58081703    -0.93730
Zr202      Zr  0.70810902  0.55162025  0.46257615     2.64680
O203        O  0.65209204  0.56120177  0.46957616    -0.98680
O204        O  0.70859257  0.58169511  0.41317389    -0.80740
O205        O  0.70511863  0.49912924  0.48040407    -0.84100
O206        O  0.71149935  0.54659619  0.51817551    -2.18810
O207        O  0.79613167  0.50460183  0.58360926    -0.67490
O208        O  0.79326666  0.55759938  0.58038685    -0.52060
C209        C  0.79452578  0.53202932  0.59677602     0.71280
O210        O  0.79861522  0.52228052  0.40297229    -0.60400
O211        O  0.77275017  0.47514611  0.40534533    -0.52380
C212        C  0.78685829  0.49742281  0.38987013     0.73080
O213        O  0.79668792  0.60514280  0.46820077    -0.71790
O214        O  0.79815842  0.60681069  0.52094260    -0.50470
C215        C  0.79710494  0.62095317  0.49426587     0.74470
O216        O  0.79670035  0.42749849  0.51379887    -0.67120
O217        O  0.77703389  0.42519462  0.46418889    -0.54320
C218        C  0.78687559  0.41189488  0.48957732     0.72850
Zr219      Zr  0.80194931  0.48443518  0.52843817     2.77540
O220        O  0.85783568  0.49303005  0.51866322    -0.97870
O221        O  0.82981400  0.44981565  0.56501216    -0.78690
Zr222      Zr  0.80138593  0.54717899  0.45560535     2.70070
O223        O  0.85757047  0.54114693  0.46437943    -0.79940
O224        O  0.82760074  0.57757062  0.41381143    -0.99020
Zr225      Zr  0.74911899  0.47383971  0.45756587     2.21500
Zr226      Zr  0.76258008  0.56433775  0.53302168     2.11130
O227        O  0.80724323  0.53856114  0.51129860    -2.47710
O228        O  0.80001650  0.49254468  0.47223066    -0.79730
O229        O  0.75910191  0.51133243  0.55056352    -0.71930
O230        O  0.75128045  0.52719622  0.43935961    -2.32890
O231        O  0.75138288  0.46623392  0.51343957    -2.29090
O232        O  0.75757572  0.57247224  0.47770986    -0.73690
H233        H  0.69496368  0.55829765  0.52822107     0.78310
H234        H  0.74668322  0.52972783  0.41722427     0.81080
H235        H  0.82643225  0.54792647  0.51903640     0.81620
H236        H  0.74710105  0.44485290  0.52020034     0.79230
H237        H  0.72879846  0.59342816  0.41339404     0.42260
H238        H  0.81080768  0.59071630  0.40440529     0.41230
H239        H  0.86339058  0.52270882  0.45167041     0.40910
H240        H  0.86670814  0.49819496  0.53951609     0.38850
H241        H  0.81302089  0.43951828  0.57782026     0.41980
H242        H  0.71882242  0.43962040  0.57481116     0.36760
H243        H  0.64593939  0.50270007  0.51567653     0.42880
H244        H  0.64990840  0.56920175  0.49126281     0.39290
H245        H  0.86616628  0.47188630  0.51398959     0.44210
H246        H  0.68399289  0.44988937  0.58070975     0.42940
H247        H  0.64760247  0.57962108  0.45571887     0.43070
H248        H  0.84138223  0.59269687  0.42481941     0.43430
O249        O  0.45389542  0.53314428  0.64939103    -0.75440
O250        O  0.44209638  0.49001089  0.68027669    -0.54350
C251        C  0.43922359  0.50706332  0.65532321     0.78290
O252        O  0.60377348  0.53412840  0.67195351    -0.60040
O253        O  0.60785708  0.58006916  0.69868625    -0.53070
C254        C  0.61849881  0.55907426  0.68010808     0.70300
O255        O  0.53361126  0.45580843  0.66745531    -0.74600
O256        O  0.48767772  0.44589153  0.69364466    -0.55160
C257        C  0.50993261  0.43823855  0.67481885     0.76300
O258        O  0.51652026  0.61942411  0.66773275    -0.59740
O259        O  0.56004339  0.62635967  0.69822107    -0.52860
C260        C  0.54002723  0.63562668  0.67775293     0.72900
Zr261      Zr  0.49061222  0.56868183  0.67508104     2.54710
O262        O  0.49842452  0.57692086  0.61866062    -0.80310
O263        O  0.44480639  0.60276032  0.67251755    -0.93730
Zr264      Zr  0.55599854  0.50568656  0.68214589     2.64680
O265        O  0.55777120  0.50739144  0.62475010    -0.98680
O266        O  0.59690580  0.46598268  0.68464816    -0.80740
O267        O  0.50204192  0.51442095  0.67708278    -0.84100
O268        O  0.54488421  0.55990110  0.68013994    -2.18810
O269        O  0.49621548  0.62575666  0.76064130    -0.67490
O270        O  0.54923879  0.62642722  0.76005395    -0.52060
C271        C  0.52284780  0.64095613  0.75980261     0.71280
O272        O  0.53058405  0.44725224  0.77530190    -0.60400
O273        O  0.48082967  0.44612637  0.75671614    -0.52380
C274        C  0.50594941  0.43201779  0.76573820     0.73080
O275        O  0.60452681  0.51914623  0.76892545    -0.71790
O276        O  0.60680358  0.57186116  0.76208521    -0.50470
C277        C  0.62046905  0.54511120  0.76508653     0.74470
O278        O  0.42461607  0.54774628  0.76320363    -0.67120
O279        O  0.42487509  0.49757995  0.74473314    -0.54320
C280        C  0.41040089  0.52223418  0.75411257     0.72850
Zr281      Zr  0.47956504  0.56904221  0.76823888     2.77540
O282        O  0.48079191  0.56606722  0.82566093    -0.97870
O283        O  0.44072044  0.60514270  0.78902650    -0.78690
Zr284      Zr  0.54798312  0.50374423  0.77651514     2.70070
O285        O  0.53933421  0.51713764  0.83143952    -0.79940
O286        O  0.57931967  0.46979871  0.81082698    -0.99020
Zr287      Zr  0.47773566  0.49278848  0.72342992     2.21500
Zr288      Zr  0.56030388  0.57976060  0.73020954     2.11130
O289        O  0.53476518  0.55871517  0.77643337    -2.47710
O290        O  0.49249839  0.51402214  0.77300773    -0.79730
O291        O  0.50588765  0.59032110  0.72354472    -0.71930
O292        O  0.53248939  0.48305811  0.72728815    -2.32890
O293        O  0.46407631  0.54719690  0.71915233    -2.29090
O294        O  0.57258115  0.52549828  0.73096205    -0.73690
H295        H  0.55594333  0.57030392  0.66292294     0.78310
H296        H  0.53836118  0.46138092  0.72497679     0.79400
H297        H  0.54274276  0.56900966  0.79492602     0.81620
H298        H  0.44255361  0.55038307  0.71293144     0.79230
H299        H  0.59974652  0.46168234  0.70747829     0.42260
H300        H  0.59332717  0.45834659  0.79635315     0.41230
H301        H  0.52524949  0.50023700  0.83971995     0.40910
H302        H  0.48170500  0.54329025  0.83091059     0.38850
H303        H  0.43050208  0.61437818  0.77010326     0.41980
H304        H  0.42672597  0.58835759  0.66930387     0.36760
H305        H  0.51285318  0.55988961  0.61246713     0.42880
H306        H  0.56579619  0.52873687  0.61921811     0.39290
H307        H  0.50153263  0.57462920  0.83183325     0.44210
H308        H  0.44712219  0.61431681  0.65215981     0.42940
H309        H  0.57520641  0.49314589  0.61922314     0.43070
H310        H  0.59352648  0.48423271  0.82221227     0.43430
O311        O  0.33469855  0.44960617  0.46617962    -0.75440
O312        O  0.31282636  0.43729172  0.51354290    -0.54350
C313        C  0.33071763  0.43113492  0.48983793     0.78290
O314        O  0.33463733  0.60944718  0.48831266    -0.60040
O315        O  0.30826979  0.61816613  0.44223514    -0.53070
C316        C  0.32791601  0.62582731  0.46366296     0.70300
O317        O  0.35028827  0.52414817  0.55008566    -0.74600
O318        O  0.32095180  0.48015066  0.56132515    -0.55160
C319        C  0.34501993  0.49808539  0.56497690     0.76300
O320        O  0.33852094  0.53077147  0.40038749    -0.59740
O321        O  0.31185616  0.57705101  0.39668231    -0.52860
C322        C  0.33418969  0.55848285  0.38877577     0.72900
Zr323      Zr  0.32022732  0.49886735  0.44435318     2.54710
O324        O  0.37662567  0.49121071  0.44898401    -0.80310
O325        O  0.31596377  0.46514611  0.39867036    -0.93730
Zr326      Zr  0.32506682  0.55906409  0.51275995     2.64680
O327        O  0.38185635  0.56657595  0.50943707    -0.98680
O328        O  0.32311266  0.59228517  0.55898202    -0.80740
O329        O  0.32446694  0.50568683  0.49910079    -0.84100
O330        O  0.32237910  0.55199211  0.45811578    -2.18810
O331        O  0.23465814  0.51198179  0.39483767    -0.67490
O332        O  0.24523348  0.56435970  0.39119714    -0.52060
C333        C  0.23981822  0.53760910  0.37846430     0.71280
O334        O  0.23297547  0.53809153  0.57318671    -0.60400
O335        O  0.25486089  0.48923418  0.57500089    -0.52380
C336        C  0.24245449  0.51317153  0.58846245     0.73080
O337        O  0.24458750  0.61746384  0.50341661    -0.71790
O338        O  0.24424998  0.61986588  0.45038576    -0.50470
C339        C  0.24635521  0.63354706  0.47701950     0.74470
O340        O  0.22758650  0.44004089  0.46902904    -0.67120
O341        O  0.24749139  0.43552574  0.51864283    -0.54320
C342        C  0.23684491  0.42345751  0.49323427     0.72850
Zr343      Zr  0.22705849  0.49650454  0.45132704     2.77540
O344        O  0.17235275  0.51018063  0.46076679    -0.97870
O345        O  0.19489141  0.46313035  0.41796067    -0.78690
Zr346      Zr  0.23271321  0.56062878  0.51868359     2.70070
O347        O  0.17634612  0.55865291  0.50907694    -0.79940
O348        O  0.20794188  0.59450903  0.55722117    -0.99020
Zr349      Zr  0.27903368  0.48281883  0.52322398     2.21500
Zr350      Zr  0.27394063  0.57309885  0.43960801     2.11130
O351        O  0.22686043  0.55163527  0.46326252    -2.47710
O352        O  0.22993054  0.50529866  0.50690585    -0.79730
O353        O  0.27232685  0.51908006  0.42713055    -0.71930
O354        O  0.28052522  0.53727216  0.53710776    -2.32890
O355        O  0.27573337  0.47500455  0.46774797    -2.29090
O356        O  0.27817670  0.58184470  0.49469778    -0.73690
H357        H  0.34048212  0.56251991  0.44907004     0.78310
H358        H  0.28537132  0.54051958  0.55900265     0.79400
H359        H  0.20856451  0.56205444  0.45473708     0.81620
H360        H  0.27816550  0.45341640  0.46169119     0.79230
H361        H  0.34117119  0.58545224  0.57201321     0.42260
H362        H  0.22555810  0.60645074  0.56662330     0.41230
H363        H  0.16832719  0.54254943  0.52429882     0.40910
H364        H  0.16374050  0.51514871  0.43961563     0.38850
H365        H  0.21020207  0.45059568  0.40589261     0.41980
H366        H  0.30249197  0.44728234  0.40585109     0.36760
H367        H  0.38306780  0.50506408  0.46640549     0.42880
H368        H  0.38624048  0.57140827  0.48692585     0.39290
H369        H  0.16202511  0.49009015  0.46719982     0.44210
H370        H  0.33715532  0.45593439  0.39636477     0.42940
H371        H  0.38599166  0.58662135  0.52034294     0.43070
H372        H  0.19626593  0.61037364  0.54461716     0.43430
O373        O  0.84743701  0.59801789  0.97412646    -0.75440
O374        O  0.80775671  0.62407258  0.95128866    -0.54350
C375        C  0.83405567  0.62371925  0.96581091     0.78290
O376        O  0.80390376  0.44664459  0.96730440    -0.60040
O377        O  0.81204260  0.44308419  0.01897813    -0.53070
C378        C  0.81752923  0.43400503  0.99091054     0.70300
O379        O  0.82503703  0.52486647  0.89850699    -0.74600
O380        O  0.81669587  0.57721963  0.90482364    -0.55160
C381        C  0.82991941  0.55382282  0.89146020     0.76300
O382        O  0.85601355  0.52393581  0.04631369    -0.59740
O383        O  0.81826245  0.49472763  0.07101692    -0.52860
C384        C  0.84498699  0.50910401  0.07012534     0.72900
Zr385      Zr  0.82929180  0.56069473  0.01419920     2.54710
O386        O  0.88336037  0.57777079  0.02282667    -0.80310
O387        O  0.82340149  0.59372104  0.06036763    -0.93730
Zr388      Zr  0.81847802  0.49855355  0.94847909     2.64680
O389        O  0.87561975  0.49492768  0.95113003    -0.98680
O390        O  0.83095776  0.46066552  0.90792548    -0.80740
O391        O  0.82360121  0.55261095  0.95980365    -0.84100
O392        O  0.82596700  0.50619531  0.00233333    -2.18810
O393        O  0.74610201  0.54649249  0.08147741    -0.67490
O394        O  0.75685673  0.49417386  0.08132195    -0.52060
C395        C  0.75180515  0.51992330  0.09610331     0.71280
O396        O  0.72236791  0.52272570  0.90133483    -0.60400
O397        O  0.74404405  0.57209806  0.89734156    -0.52380
C398        C  0.73187830  0.54727431  0.88493000     0.73080
O399        O  0.73400285  0.44508543  0.97328182    -0.71790
O400        O  0.74607092  0.44222884  0.02509539    -0.50470
C401        C  0.74009397  0.42881569  0.99894723     0.74470
O402        O  0.73758149  0.62226445  0.00859989    -0.67120
O403        O  0.75064227  0.62753336  0.95666470    -0.54320
C404        C  0.74496453  0.63930997  0.98394730     0.72850
Zr405      Zr  0.73622566  0.56573250  0.02572493     2.77540
O406        O  0.67972800  0.55660184  0.02346298    -0.97870
O407        O  0.71310761  0.60064208  0.06424980    -0.78690
Zr408      Zr  0.72593715  0.50245322  0.95749707     2.70070
O409        O  0.67193923  0.51070471  0.97443448    -0.79940
O410        O  0.69270402  0.46933670  0.92489305    -0.99020
Zr411      Zr  0.77557714  0.57750255  0.94477744     2.21500
Zr412      Zr  0.77938596  0.48801175  0.02930508     2.11130
O413        O  0.73053004  0.51122566  0.01327931    -2.47710
O414        O  0.72871686  0.55750980  0.97017200    -0.79730
O415        O  0.78399481  0.54213461  0.04147451    -0.71930
O416        O  0.77211103  0.52283102  0.93220064    -2.32890
O417        O  0.78250033  0.58531935  0.00010498    -2.29090
O418        O  0.77304325  0.47921762  0.97430416    -0.73690
H419        H  0.84385311  0.49317556  0.00689768     0.78310
H420        H  0.77325657  0.51814795  0.91023329     0.79400
H421        H  0.71321380  0.50162191  0.02479721     0.81620
H422        H  0.78791043  0.60658397  0.00551063     0.79230
H423        H  0.81055202  0.45621271  0.89768681     0.42260
H424        H  0.70750090  0.45506541  0.91421724     0.41230
H425        H  0.66388673  0.52700147  0.95962735     0.40910
H426        H  0.67349650  0.55153385  0.04549714     0.38850
H427        H  0.73129151  0.60904875  0.07601901     0.41980
H428        H  0.81774520  0.61489319  0.05236707     0.36760
H429        H  0.89608495  0.56452092  0.00871833     0.42880
H430        H  0.88217995  0.50622013  0.97026742     0.39290
H431        H  0.67068786  0.57764988  0.01908065     0.44210
H432        H  0.84487617  0.59621472  0.06895122     0.42940
H433        H  0.87988207  0.47244030  0.95564061     0.43070
H434        H  0.68098083  0.45553141  0.93994691     0.43430
O435        O  0.01967865  0.45393561  0.80686419    -0.75440
O436        O  0.96965368  0.45705444  0.78791420    -0.54350
C437        C  0.99144274  0.44338109  0.80319956     0.78290
O438        O  0.03168332  0.61760220  0.81186665    -0.60040
O439        O  0.07553548  0.62110278  0.78102398    -0.53070
C440        C  0.05692735  0.63143877  0.80235229     0.70300
O441        O  0.96514472  0.53561598  0.83085242    -0.74600
O442        O  0.93409361  0.51444085  0.79444318    -0.55160
C443        C  0.93800169  0.52869095  0.82065338     0.76300
O444        O  0.10499789  0.51052607  0.77317208    -0.59740
O445        O  0.11297499  0.56205388  0.77706365    -0.52860
C446        C  0.12095148  0.53358326  0.78353517     0.72900
Zr447      Zr  0.05332495  0.49938218  0.79322557     2.54710
O448        O  0.06547328  0.51028673  0.84803768    -0.80310
O449        O  0.08611561  0.45427826  0.80651582    -0.93730
Zr450      Zr  0.99995103  0.57147351  0.80382670     2.64680
O451        O  0.01957892  0.57427487  0.85772653    -0.98680
O452        O  0.95874637  0.60932043  0.81514966    -0.80740
O453        O  0.00160799  0.51608239  0.80050150    -0.84100
O454        O  0.05180374  0.55509694  0.79650117    -2.18810
O455        O  0.10190291  0.51403239  0.70478564    -0.67490
O456        O  0.10871171  0.56637227  0.70914617    -0.52060
C457        C  0.12016612  0.53858890  0.70744608     0.71280
O458        O  0.92707281  0.56296585  0.71614684    -0.60400
O459        O  0.92267420  0.51150175  0.73070379    -0.52380
C460        C  0.91034253  0.53812762  0.72365309     0.73080
O461        O  0.00633018  0.63099449  0.71705224    -0.71790
O462        O  0.05926690  0.62963330  0.72345149    -0.50470
C463        C  0.03326378  0.64487908  0.72039372     0.74470
O464        O  0.01776740  0.45109235  0.70018122    -0.67120
O465        O  0.97155342  0.45141686  0.72731996    -0.54320
C466        C  0.99337402  0.43678494  0.71250008     0.72850
Zr467      Zr  0.04340533  0.50443353  0.69954613     2.77540
O468        O  0.03608526  0.51589463  0.64354154    -0.97870
O469        O  0.07311471  0.46738276  0.66817545    -0.78690
Zr470      Zr  0.98455847  0.57716423  0.71006882     2.70070
O471        O  0.99006226  0.57528271  0.65299939    -0.79940
O472        O  0.94799092  0.61518755  0.68741051    -0.99020
Zr473      Zr  0.97287490  0.50159350  0.75467782     2.21500
Zr474      Zr  0.06725728  0.57708070  0.74625233     2.11130
O475        O  0.03794403  0.56089905  0.70075326    -2.47710
O476        O  0.98965238  0.52142295  0.70441150    -0.79730
O477        O  0.07055080  0.52117141  0.74435882    -0.71930
O478        O  0.96848349  0.55724140  0.76008138    -2.32890
O479        O  0.02544365  0.48309036  0.74890417    -2.29090
O480        O  0.01459090  0.59288258  0.75430137    -0.73690
H481        H  0.06503724  0.56255412  0.81331230     0.78310
H482        H  0.94768826  0.56405358  0.76576067     0.79400
H483        H  0.04654711  0.57106061  0.68206442     0.81620
H484        H  0.02819385  0.46069939  0.75104289     0.79230
H485        H  0.93877227  0.59866122  0.80969561     0.42260
H486        H  0.94063293  0.62762174  0.70551118     0.41230
H487        H  0.97073952  0.56439881  0.64589772     0.40910
H488        H  0.01314473  0.51859791  0.64096339     0.38850
H489        H  0.08257194  0.45273272  0.68383073     0.41980
H490        H  0.08194696  0.43889449  0.78972629     0.36760
H491        H  0.04735827  0.50140764  0.86001892     0.42880
H492        H  0.01048599  0.55581025  0.86912802     0.39290
H493        H  0.04529110  0.53706927  0.63958376     0.44210
H494        H  0.07679380  0.44469914  0.82586609     0.42940
H495        H  0.00944221  0.59285746  0.86707930     0.43070
H496        H  0.96107057  0.63003440  0.67466018     0.43430
O497        O  0.19297225  0.43173221  0.99984388    -0.75440
O498        O  0.21511473  0.42704823  0.95112777    -0.54350
C499        C  0.19960947  0.41608152  0.97512878     0.78290
O500        O  0.19967421  0.60324728  0.97467915    -0.60040
O501        O  0.22209171  0.60769905  0.02290371    -0.53070
C502        C  0.20805079  0.61922413  0.99858991     0.70300
O503        O  0.18632181  0.52660321  0.90808088    -0.74600
O504        O  0.21243958  0.48127665  0.89746515    -0.55160
C505        C  0.19425030  0.50421768  0.88989280     0.76300
O506        O  0.21931078  0.50240103  0.07029021    -0.59740
O507        O  0.21345010  0.55384735  0.07302113    -0.52860
C508        C  0.20563081  0.52594524  0.08194537     0.72900
Zr509      Zr  0.20162472  0.48380340  0.02033714     2.54710
O510        O  0.14622902  0.49718188  0.01628104    -0.80310
O511        O  0.17631190  0.45232173  0.06190629    -0.93730
Zr512      Zr  0.19957254  0.54968242  0.95739108     2.64680
O513        O  0.14378545  0.54877267  0.97048629    -0.98680
O514        O  0.18578712  0.58687173  0.91544021    -0.80740
O515        O  0.19877646  0.49444272  0.96561441    -0.84100
O516        O  0.20056612  0.53899262  0.01169918    -2.18810
O517        O  0.29361136  0.49754858  0.07330512    -0.67490
O518        O  0.28363662  0.54981307  0.07438447    -0.52060
C519        C  0.29010812  0.52359353  0.08838554     0.71280
O520        O  0.29222976  0.53360577  0.89496840    -0.60400
O521        O  0.27321725  0.48349334  0.89295202    -0.52380
C522        C  0.28322255  0.50902752  0.87938427     0.73080
O523        O  0.28890052  0.60663468  0.96975009    -0.71790
O524        O  0.28240502  0.60549328  0.02264931    -0.50470
C525        C  0.28623819  0.62075777  0.99660759     0.74470
O526        O  0.29573260  0.42735368  0.99747481    -0.67120
O527        O  0.27642843  0.42670575  0.94762998    -0.54320
C528        C  0.28560932  0.41249462  0.97299413     0.72850
Zr529      Zr  0.29644808  0.48273118  0.01657360     2.77540
O530        O  0.35166081  0.49477629  0.00663583    -0.97870
O531        O  0.32526654  0.44654736  0.05080561    -0.78690
Zr532      Zr  0.29398198  0.55095880  0.95112129     2.70070
O533        O  0.35009746  0.54484862  0.96017421    -0.79940
O534        O  0.31890951  0.58699972  0.91313138    -0.99020
Zr535      Zr  0.24625260  0.47483851  0.94312959     2.21500
Zr536      Zr  0.25052493  0.55875397  0.02933951     2.11130
O537        O  0.29768056  0.53836988  0.00620103    -2.47710
O538        O  0.29570213  0.49507317  0.96116852    -0.79730
O539        O  0.25032107  0.50342495  0.03949854    -0.71930
O540        O  0.24524934  0.53035816  0.93347706    -2.32890
O541        O  0.24754146  0.46281906  0.99825771    -2.29090
O542        O  0.24791760  0.57079405  0.97468480    -0.73690
H543        H  0.18305058  0.54890944  0.02203283     0.78310
H544        H  0.24195808  0.53624045  0.91176965     0.79400
H545        H  0.31604307  0.54804369  0.01539672     0.81620
H546        H  0.24585784  0.44102695  0.00433015     0.79230
H547        H  0.16302683  0.59072271  0.91821843     0.42260
H548        H  0.30199033  0.60154298  0.90646216     0.41230
H549        H  0.35715097  0.53077580  0.94320413     0.40910
H550        H  0.36052946  0.49901839  0.02770966     0.38850
H551        H  0.30900301  0.43641582  0.06439939     0.41980
H552        H  0.19215739  0.43641712  0.06804639     0.36760
H553        H  0.13726721  0.48102543  0.00227060     0.42880
H554        H  0.13944169  0.57020337  0.97819741     0.39290
H555        H  0.36094788  0.47443049  0.00054213     0.44210
H556        H  0.15943863  0.44027010  0.05139443     0.42940
H557        H  0.13300079  0.54788137  0.94986734     0.43070
H558        H  0.33341593  0.60012924  0.92565015     0.43430
O559        O  0.00050195  0.58333664  0.15519135    -0.75440
O560        O  0.96132338  0.59648839  0.18874385    -0.54350
C561        C  0.97520651  0.59817180  0.16185708     0.78290
O562        O  0.00727041  0.43218802  0.17003451    -0.60040
O563        O  0.05766091  0.43136649  0.18759017    -0.53070
C564        C  0.03474606  0.41981488  0.17212162     0.70300
O565        O  0.92944947  0.50416756  0.17542862    -0.74600
O566        O  0.92948289  0.55575461  0.18870214    -0.55160
C567        C  0.92127456  0.53284242  0.17123162     0.76300
O568        O  0.08278010  0.52393302  0.15294997    -0.59740
O569        O  0.09679876  0.47971593  0.18044637    -0.52860
C570        C  0.09970803  0.49964735  0.15737553     0.72900
Zr571      Zr  0.04121274  0.55082357  0.17802917     2.54710
O572        O  0.05159799  0.56996867  0.12450939    -0.80310
O573        O  0.07706910  0.59453416  0.18772954    -0.93730
Zr574      Zr  0.98050456  0.48104087  0.18146309     2.64680
O575        O  0.98482270  0.48475391  0.12420404    -0.98680
O576        O  0.94120718  0.43949275  0.17640960    -0.80740
O577        O  0.98830723  0.53599544  0.18117706    -0.84100
O578        O  0.03331760  0.49557389  0.17690218    -2.18810
O579        O  0.10448181  0.53523137  0.25764178    -0.67490
O580        O  0.10924320  0.48366387  0.24625164    -0.52060
C581        C  0.12150541  0.51088110  0.25096522     0.71280
O582        O  0.92647314  0.49641466  0.27754890    -0.60400
O583        O  0.92227260  0.54737225  0.26085434    -0.52380
C584        C  0.90976117  0.52099278  0.26976430     0.73080
O585        O  0.99988016  0.42481980  0.26191576    -0.71790
O586        O  0.05158685  0.42362878  0.24924232    -0.50470
C587        C  0.02516633  0.40950389  0.25446626     0.74470
O588        O  0.02959017  0.60305561  0.27420891    -0.67120
O589        O  0.97960402  0.60726040  0.25532591    -0.54320
C590        C  0.00518642  0.61938443  0.26645375     0.72850
Zr591      Zr  0.04854456  0.54833338  0.27076845     2.77540
O592        O  0.04842737  0.53873610  0.32762357    -0.97870
O593        O  0.08570102  0.58226196  0.29789128    -0.78690
Zr594      Zr  0.98359730  0.47982813  0.27475849     2.70070
O595        O  0.99857630  0.48306160  0.32992643    -0.79940
O596        O  0.95143949  0.44251358  0.30529996    -0.99020
Zr597      Zr  0.96912133  0.55680054  0.22945597     2.21500
Zr598      Zr  0.05824746  0.47464201  0.22281749     2.11130
O599        O  0.03902510  0.49257101  0.27278881    -2.47710
O600        O  0.99346171  0.53555587  0.27607858    -0.79730
O601        O  0.06780941  0.52984318  0.22223313    -0.71930
O602        O  0.96008521  0.50090945  0.22874436    -2.32890
O603        O  0.02335591  0.57113589  0.22536983    -2.29090
O604        O  0.00414470  0.46077620  0.22686306    -0.73690
H605        H  0.04066890  0.48627414  0.15765731     0.78310
H606        H  0.93845164  0.49460370  0.22712473     0.79400
H607        H  0.05032417  0.48225167  0.28970321     0.81620
H608        H  0.02668213  0.59322926  0.22103197     0.79230
H609        H  0.94008642  0.42950943  0.19766059     0.42260
H610        H  0.94139559  0.42897499  0.28937448     0.41230
H611        H  0.98120281  0.49474664  0.33988381     0.40910
H612        H  0.02599664  0.53892037  0.33388519     0.38850
H613        H  0.09906732  0.59166789  0.28099164     0.41980
H614        H  0.06891926  0.61211931  0.17455234     0.36760
H615        H  0.03591371  0.55907133  0.11127156     0.42880
H616        H  0.99806867  0.50365712  0.11999971     0.39290
H617        H  0.05527219  0.51672210  0.33100002     0.44210
H618        H  0.09695015  0.58848589  0.17731402     0.42940
H619        H  0.99815545  0.46683404  0.11806350     0.43070
H620        H  0.96659002  0.42851697  0.31620673     0.43430
O621        O  0.93448950  0.35285000  0.98603444    -0.75440
O622        O  0.91783224  0.32835880  0.94210590    -0.54350
C623        C  0.91590811  0.35009435  0.96262861     0.78290
O624        O  0.09122903  0.32417860  0.95157236    -0.60040
O625        O  0.09762965  0.31309242  0.00349384    -0.53070
C626        C  0.10791559  0.32345254  0.97648128     0.70300
O627        O  0.00387680  0.34913931  0.90059162    -0.74600
O628        O  0.95685952  0.32372977  0.89471493    -0.55160
C629        C  0.97787453  0.34380468  0.88632387     0.76300
O630        O  0.00779219  0.34137552  0.06099905    -0.59740
O631        O  0.05366188  0.31416894  0.06393443    -0.52860
C632        C  0.03296611  0.33290853  0.07515469     0.72900
Zr633      Zr  0.97822272  0.33220735  0.01401218     2.54710
O634        O  0.98180541  0.38915098  0.01907368    -0.80310
O635        O  0.93771070  0.33055075  0.05481091    -0.93730
Zr636      Zr  0.03607960  0.33202961  0.94431911     2.64680
O637        O  0.04487692  0.38667020  0.95871266    -0.98680
O638        O  0.06168408  0.34693032  0.89483992    -0.80740
O639        O  0.98301965  0.33391110  0.95881896    -0.84100
O640        O  0.03164559  0.33197209  0.99959740    -2.18810
O641        O  0.99049149  0.24585532  0.06776129    -0.67490
O642        O  0.04299628  0.25574855  0.06832819    -0.52060
C643        C  0.01671760  0.25054691  0.08270525     0.71280
O644        O  0.01158708  0.24241908  0.88682292    -0.60400
O645        O  0.96241852  0.26343271  0.88676406    -0.52380
C646        C  0.98731073  0.25397920  0.87232478     0.73080
O647        O  0.08905936  0.24393228  0.95464855    -0.71790
O648        O  0.09272586  0.24616269  0.00741649    -0.50470
C649        C  0.10571561  0.24541228  0.98016655     0.74470
O650        O  0.91323281  0.24230677  0.99979011    -0.67120
O651        O  0.90768062  0.26181441  0.94989191    -0.54320
C652        C  0.89601016  0.25202509  0.97641816     0.72850
Zr653      Zr  0.97045526  0.23905339  0.01288734     2.77540
O654        O  0.97920039  0.18312050  0.00493254    -0.97870
O655        O  0.93773239  0.21080048  0.05138605    -0.78690
Zr656      Zr  0.03177221  0.23797190  0.94179477     2.70070
O657        O  0.02352231  0.18210124  0.95302440    -0.79940
O658        O  0.06237403  0.20872643  0.90356032    -0.99020
Zr659      Zr  0.95763262  0.28800483  0.93855762     2.21500
Zr660      Zr  0.05055610  0.28192039  0.01736754     2.11130
O661        O  0.02484103  0.23539195  0.99794353    -2.47710
O662        O  0.97699551  0.23802472  0.95655826    -0.79730
O663        O  0.99694623  0.28369933  0.03227940    -0.71930
O664        O  0.01178399  0.28745728  0.92406264    -2.32890
O665        O  0.95094832  0.28842511  0.99446192    -2.29090
O666        O  0.05659135  0.28331145  0.96172724    -0.73690
H667        H  0.04324328  0.34921919  0.00868101     0.78310
H668        H  0.01584305  0.29238339  0.90222861     0.79400
H669        H  0.03428709  0.21665507  0.00689279     0.81620
H670        H  0.92974820  0.29318299  0.00074584     0.79230
H671        H  0.06526535  0.32673430  0.88407616     0.42260
H672        H  0.07585772  0.22480875  0.89290949     0.41230
H673        H  0.00712024  0.17563944  0.93788632     0.40910
H674        H  0.98529838  0.17469846  0.02593067     0.38850
H675        H  0.92906456  0.22740835  0.06497010     0.41980
H676        H  0.93647840  0.30810880  0.06150450     0.36760
H677        H  0.98746334  0.39696667  0.99765417     0.42880
H678        H  0.06802897  0.38875740  0.96020491     0.39290
H679        H  0.95800554  0.17417515  0.00116341     0.44210
H680        H  0.91766984  0.33444082  0.04365114     0.42940
H681        H  0.03930977  0.39897985  0.93952115     0.43070
H682        H  0.07712203  0.19582740  0.91625368     0.43430
O683        O  0.94421570  0.70686725  0.97089768    -0.75440
O684        O  0.93144863  0.73092979  0.01704627    -0.54350
C685        C  0.92504541  0.71359264  0.99326557     0.78290
O686        O  0.10756351  0.70787911  0.01500181    -0.60040
O687        O  0.11928297  0.73352973  0.96877274    -0.53070
C688        C  0.12664059  0.71641911  0.99295454     0.70300
O689        O  0.01120824  0.68510613  0.05897816    -0.74600
O690        O  0.96792376  0.71531521  0.06660888    -0.55160
C691        C  0.98351569  0.68982280  0.07036130     0.76300
O692        O  0.03180299  0.71159461  0.90887878    -0.59740
O693        O  0.08047941  0.73415445  0.91151608    -0.52860
C694        C  0.05955514  0.71749068  0.89787996     0.72900
Zr695      Zr  0.99757244  0.71901616  0.95409318     2.54710
O696        O  0.99788573  0.66166147  0.95419196    -0.80310
O697        O  0.96526752  0.72002565  0.90679606    -0.93730
Zr698      Zr  0.05233859  0.71058019  0.02687207     2.64680
O699        O  0.06065127  0.65531042  0.01477915    -0.98680
O700        O  0.07641579  0.70182345  0.07825604    -0.80740
O701        O  0.00021196  0.71346776  0.00923578    -0.84100
O702        O  0.05007748  0.71569655  0.97145559    -2.18810
O703        O  0.01663139  0.80716625  0.90653275    -0.67490
O704        O  0.06813003  0.79379437  0.90701521    -0.52060
C705        C  0.04277126  0.80115681  0.89204347     0.71280
O706        O  0.03330930  0.80076339  0.08835677    -0.60400
O707        O  0.98393167  0.77978814  0.08556321    -0.52380
C708        C  0.00764259  0.79035950  0.10133900     0.73080
O709        O  0.11350986  0.79585426  0.02360533    -0.71790
O710        O  0.11702773  0.79893105  0.97087802    -0.50470
C711        C  0.13010260  0.79630586  0.99793250     0.74470
O712        O  0.93977703  0.81259670  0.97548372    -0.67120
O713        O  0.93636392  0.79642567  0.02630073    -0.54320
C714        C  0.92338069  0.80419511  0.00011272     0.72850
Zr715      Zr  0.99734513  0.81301102  0.96183725     2.77540
O716        O  0.01159053  0.86750010  0.97232375    -0.97870
O717        O  0.96700129  0.84620885  0.92596808    -0.78690
Zr718      Zr  0.05634101  0.80447700  0.03482616     2.70070
O719        O  0.05249415  0.86121084  0.02661632    -0.79940
O720        O  0.08873710  0.83004862  0.07431593    -0.99020
Zr721      Zr  0.97863800  0.75951356  0.03202613     2.21500
Zr722      Zr  0.07339977  0.76547557  0.95734431     2.11130
O723        O  0.05123275  0.81223766  0.97887944    -2.47710
O724        O  0.00256125  0.80895224  0.01809921    -0.79730
O725        O  0.02054314  0.76769359  0.94024364    -0.71930
O726        O  0.03153233  0.75549159  0.05001063    -2.32890
O727        O  0.97416806  0.76391431  0.97599391    -2.29090
O728        O  0.07754947  0.75870507  0.01274527    -0.73690
H729        H  0.06098863  0.69840526  0.96186608     0.78310
H730        H  0.03336209  0.74927216  0.07186068     0.79400
H731        H  0.06259058  0.83073810  0.97148552     0.81620
H732        H  0.95302355  0.76259864  0.96818272     0.79230
H733        H  0.08884078  0.72123006  0.08193047     0.42260
H734        H  0.10159419  0.81293213  0.08363146     0.41230
H735        H  0.03632853  0.86782964  0.04195177     0.40910
H736        H  0.01812409  0.87647527  0.95159776     0.38850
H737        H  0.95324338  0.83137445  0.91455539     0.41980
H738        H  0.94857575  0.73550340  0.91121548     0.36760
H739        H  0.98692303  0.65532828  0.97396307     0.42880
H740        H  0.04354529  0.65002407  0.99998130     0.39290
H741        H  0.99142336  0.87792149  0.97714015     0.44210
H742        H  0.95428379  0.69937302  0.90693356     0.42940
H743        H  0.07996660  0.65489794  0.00170843     0.43070
H744        H  0.10390876  0.84338760  0.06227401     0.43430
O745        O  0.61202359  0.81649559  0.99649292    -0.75440
O746        O  0.61354493  0.82530041  0.94516320    -0.54350
C747        C  0.62289442  0.83161128  0.97283673     0.78290
O748        O  0.53957685  0.73453211  0.07099622    -0.60040
O749        O  0.48891454  0.75125714  0.07223805    -0.53070
C750        C  0.51416867  0.74222118  0.08615058     0.70300
O751        O  0.61594933  0.74811063  0.00106904    -0.74600
O752        O  0.62072541  0.76004022  0.94911383    -0.55160
C753        C  0.63313281  0.75539031  0.97637923     0.76300
O754        O  0.53706722  0.83876555  0.06797222    -0.59740
O755        O  0.49164638  0.81123334  0.07591205    -0.52860
C756        C  0.51391661  0.82928236  0.08511092     0.72900
Zr757      Zr  0.56244865  0.83052380  0.01833685     2.54710
O758        O  0.60026147  0.83655448  0.06087813    -0.80310
O759        O  0.57150318  0.88724226  0.01476073    -0.93730
Zr760      Zr  0.55894378  0.73669506  0.01473060     2.64680
O761        O  0.59397645  0.70386077  0.04635819    -0.98680
O762        O  0.55162509  0.68207318  0.99955060    -0.80740
O763        O  0.58110560  0.78401463  0.99539657    -0.84100
O764        O  0.53992590  0.78364870  0.03764900    -2.18810
O765        O  0.45491438  0.85653758  0.98360108    -0.67490
O766        O  0.44569912  0.82628606  0.02785551    -0.52060
C767        C  0.43968861  0.84932221  0.00890165     0.71280
O768        O  0.50864014  0.75798294  0.89193571    -0.60400
O769        O  0.56160706  0.76176480  0.89085394    -0.52380
C770        C  0.53492934  0.76190790  0.87664660     0.73080
O771        O  0.43650137  0.74538672  0.96578872    -0.71790
O772        O  0.43413512  0.76133313  0.01684280    -0.50470
C773        C  0.42096148  0.75263816  0.99106567     0.74470
O774        O  0.52457589  0.84845665  0.90288892    -0.67120
O775        O  0.57106630  0.82308725  0.89584560    -0.54320
C776        C  0.54942560  0.84199150  0.88692305     0.72850
Zr777      Zr  0.49882142  0.83791401  0.95310735     2.77540
O778        O  0.45486197  0.84221754  0.91663270    -0.97870
O779        O  0.50647312  0.89480495  0.95202823    -0.78690
Zr780      Zr  0.49270334  0.74454631  0.94766577     2.70070
O781        O  0.45717601  0.71947082  0.91062361    -0.79940
O782        O  0.50297374  0.68819002  0.95025523    -0.99020
Zr783      Zr  0.57147176  0.78761991  0.94039328     2.21500
Zr784      Zr  0.48515176  0.78569886  0.02621433     2.11130
O785        O  0.47433665  0.79143603  0.97142478    -2.47710
O786        O  0.51692894  0.79166280  0.92946633    -0.79730
O787        O  0.50828352  0.83421392  0.00798560    -0.71930
O788        O  0.54800352  0.73912623  0.95898833    -2.32890
O789        O  0.55256514  0.83529064  0.96379994    -2.29090
O790        O  0.50349047  0.73815714  0.00308059    -0.73690
H791        H  0.54569825  0.78493057  0.05945307     0.78310
H792        H  0.55705053  0.72153060  0.94810840     0.79400
H793        H  0.45271261  0.79648413  0.96741739     0.81620
H794        H  0.56230324  0.85406448  0.95499988     0.79230
H795        H  0.57144030  0.67657778  0.98868869     0.42260
H796        H  0.48230834  0.67831983  0.95508091     0.41230
H797        H  0.44617316  0.73715306  0.90000665     0.40910
H798        H  0.45171571  0.86516798  0.91369733     0.38850
H799        H  0.50902891  0.90039752  0.97444567     0.41980
H800        H  0.56551389  0.89359364  0.99309487     0.36760
H801        H  0.61748753  0.84971596  0.05189589     0.42880
H802        H  0.60240112  0.71810540  0.06259470     0.39290
H803        H  0.46321185  0.83513723  0.89613752     0.44210
H804        H  0.59460963  0.88996987  0.01546339     0.42940
H805        H  0.58005241  0.68899511  0.05814325     0.43070
H806        H  0.50754403  0.68232588  0.92821900     0.43430
O807        O  0.59435863  0.04099356  0.81222090    -0.75440
O808        O  0.60736512  0.99608853  0.78743074    -0.54350
C809        C  0.61195707  0.01693689  0.80851717     0.78290
O810        O  0.43592714  0.02014513  0.79723029    -0.60040
O811        O  0.42883942  0.06721723  0.77179694    -0.53070
C812        C  0.41935446  0.04415984  0.78942482     0.70300
O813        O  0.51582967  0.95048212  0.80296175    -0.74600
O814        O  0.56329101  0.94727099  0.77798639    -0.55160
C815        C  0.54147304  0.93616986  0.79594183     0.76300
O816        O  0.51416980  0.11031427  0.81191068    -0.59740
O817        O  0.47029301  0.11623872  0.78178669    -0.52860
C818        C  0.48775693  0.12328492  0.80524548     0.72900
Zr819      Zr  0.54785981  0.06789695  0.79544048     2.54710
O820        O  0.55121875  0.06527130  0.85263055    -0.80310
O821        O  0.58397783  0.11269708  0.79546439    -0.93730
Zr822      Zr  0.48776148  0.99867244  0.78939022     2.64680
O823        O  0.48564687  0.99919033  0.84677236    -0.98680
O824        O  0.45055962  0.95499553  0.78716658    -0.80740
O825        O  0.54115952  0.01261439  0.79408155    -0.84100
O826        O  0.49455281  0.05349304  0.79207963    -2.18810
O827        O  0.53919022  0.12766883  0.71238980    -0.67490
O828        O  0.48649841  0.12790792  0.72016474    -0.52060
C829        C  0.51304296  0.14245857  0.71716438     0.71280
O830        O  0.51409551  0.94800028  0.69464287    -0.60400
O831        O  0.56283105  0.94681881  0.71675855    -0.52380
C832        C  0.53864201  0.93301554  0.70472017     0.73080
O833        O  0.43693425  0.01495048  0.70215550    -0.71790
O834        O  0.43362833  0.06738306  0.70794875    -0.50470
C835        C  0.42046504  0.04036439  0.70507951     0.74470
O836        O  0.61412489  0.05816306  0.70674284    -0.67120
O837        O  0.61669278  0.00653024  0.72197276    -0.54320
C838        C  0.62974727  0.03319769  0.71488919     0.72850
Zr839      Zr  0.55740266  0.07280872  0.70244113     2.77540
O840        O  0.54964117  0.06892054  0.64578568    -0.97870
O841        O  0.59262177  0.11106106  0.67704704    -0.78690
Zr842      Zr  0.49413504  0.00308128  0.69529106     2.70070
O843        O  0.50279485  0.01895864  0.64051452    -0.79940
O844        O  0.46350673  0.96792473  0.66228534    -0.99020
Zr845      Zr  0.56665992  0.99503907  0.74728242     2.21500
Zr846      Zr  0.47720633  0.07586549  0.74312122     2.11130
O847        O  0.50286023  0.05907715  0.69589508    -2.47710
O848        O  0.54909798  0.01688574  0.69808152    -0.79730
O849        O  0.53081899  0.09047556  0.74780251    -0.71930
O850        O  0.51251598  0.98124006  0.74375144    -2.32890
O851        O  0.57482752  0.05044263  0.75096421    -2.29090
O852        O  0.46895328  0.02052501  0.74151657    -0.73690
H853        H  0.48264082  0.06086349  0.80987439     0.78310
H854        H  0.50837802  0.95905336  0.74606150     0.79400
H855        H  0.49392753  0.06948949  0.67761843     0.81620
H856        H  0.59601605  0.05595642  0.75650806     0.79230
H857        H  0.44328556  0.95511616  0.76501428     0.42260
H858        H  0.44898091  0.95681788  0.67708257     0.41230
H859        H  0.51967742  0.00489284  0.63315048     0.40910
H860        H  0.54484986  0.09065902  0.63855871     0.38850
H861        H  0.60370242  0.12131773  0.69466277     0.41980
H862        H  0.58970854  0.11609645  0.77301291     0.36760
H863        H  0.54049982  0.04524333  0.85857034     0.42880
H864        H  0.47674626  0.01995694  0.85199279     0.39290
H865        H  0.57080899  0.06464567  0.63713071     0.44210
H866        H  0.60339123  0.10455671  0.80539673     0.42940
H867        H  0.46878532  0.98388354  0.85241496     0.43070
H868        H  0.44977650  0.98191192  0.64957739     0.43430
O869        O  0.52281946  0.31332538  0.90353394    -0.75440
O870        O  0.47038441  0.30610982  0.89796582    -0.54350
C871        C  0.49793088  0.31037601  0.88609595     0.78290
O872        O  0.58215239  0.21061329  0.97335050    -0.60040
O873        O  0.58550232  0.22221360  0.02536633    -0.53070
C874        C  0.59547849  0.20883840  0.00034568     0.70300
O875        O  0.51155540  0.22912086  0.89674813    -0.74600
O876        O  0.45955661  0.23955529  0.89928465    -0.55160
C877        C  0.48314090  0.22534521  0.88754609     0.76300
O878        O  0.59156867  0.31440012  0.97950726    -0.59740
O879        O  0.59409033  0.28641437  0.02593405    -0.52860
C880        C  0.60715237  0.30120798  0.00243534     0.72900
Zr881      Zr  0.53571584  0.31736570  0.96094627     2.54710
O882        O  0.57104681  0.35147389  0.93028920    -0.80310
O883        O  0.52252306  0.37162680  0.97287936    -0.93730
Zr884      Zr  0.53296423  0.22425465  0.94957642     2.64680
O885        O  0.57129459  0.21502112  0.90794145    -0.98680
O886        O  0.52478011  0.16742828  0.95005816    -0.80740
O887        O  0.51419374  0.27406063  0.93416085    -0.84100
O888        O  0.55454478  0.26704511  0.97609081    -2.18810
O889        O  0.48679368  0.30129319  0.08152695    -0.67490
O890        O  0.53712254  0.28379780  0.08155872    -0.52060
C891        C  0.51189176  0.29155704  0.09612525     0.71280
O892        O  0.42437871  0.20016340  0.97818131    -0.60400
O893        O  0.41709440  0.23614039  0.93821403    -0.52380
C894        C  0.41098960  0.21013428  0.95279697     0.73080
O895        O  0.48891943  0.19663205  0.06215050    -0.71790
O896        O  0.53570040  0.22100858  0.07245450    -0.50470
C897        C  0.51320189  0.20170783  0.07928516     0.74470
O898        O  0.41160444  0.29921217  0.00828466    -0.67120
O899        O  0.41065961  0.30003867  0.95511367    -0.54320
C900        C  0.39632573  0.29829827  0.98171754     0.72850
Zr901      Zr  0.46755332  0.30822256  0.02580061     2.77540
O902        O  0.43039809  0.33132651  0.06255452    -0.97870
O903        O  0.47229340  0.36523874  0.02035083    -0.78690
Zr904      Zr  0.46664732  0.21551450  0.01315337     2.70070
O905        O  0.42047053  0.21498232  0.04727692    -0.79940
O906        O  0.47012169  0.15833591  0.01602675    -0.99020
Zr907      Zr  0.45936415  0.27335709  0.94412534     2.21500
Zr908      Zr  0.54304635  0.25975644  0.03055858     2.11130
O909        O  0.48770195  0.25820954  0.04072399    -2.47710
O910        O  0.44654735  0.26503222  0.99818675    -0.79730
O911        O  0.52344133  0.31080593  0.01606027    -0.71930
O912        O  0.47916440  0.22260995  0.95937569    -2.32890
O913        O  0.48005922  0.31813593  0.97113864    -2.29090
O914        O  0.52151169  0.21565053  0.00360003    -0.73690
H915        H  0.57624090  0.26474456  0.97093725     0.78310
H916        H  0.47123390  0.20540232  0.94711944     0.79400
H917        H  0.48216375  0.25276708  0.06213704     0.81620
H918        H  0.47048551  0.33727292  0.96327446     0.79230
H919        H  0.53475966  0.15988026  0.96980891     0.42260
H920        H  0.47870328  0.15215040  0.99534741     0.41230
H921        H  0.40522379  0.22891878  0.03642335     0.40910
H922        H  0.42339326  0.31352473  0.07631556     0.38850
H923        H  0.48866883  0.37105212  0.03578180     0.41980
H924        H  0.51878323  0.38188443  0.95210229     0.36760
H925        H  0.58230671  0.33709883  0.91605862     0.42880
H926        H  0.58735886  0.23179312  0.91029524     0.39290
H927        H  0.44317658  0.34484726  0.07643447     0.44210
H928        H  0.54240138  0.38109765  0.98043437     0.42940
H929        H  0.58208736  0.19527410  0.91410045     0.43070
H930        H  0.44806864  0.15071932  0.01630085     0.43430
O931        O  0.49783544  0.93385403  0.16803258    -0.75440
O932        O  0.54225258  0.92382889  0.19622746    -0.54350
C933        C  0.52045822  0.91607627  0.17707129     0.78290
O934        O  0.53036300  0.10096243  0.19031266    -0.60040
O935        O  0.47787680  0.10361417  0.19112840    -0.53070
C936        C  0.50481411  0.11452217  0.18233420     0.70300
O937        O  0.58698614  0.01534632  0.16014672    -0.74600
O938        O  0.59064551  0.96844546  0.18707289    -0.55160
C939        C  0.59936082  0.98831421  0.16577767     0.76300
O940        O  0.42346411  0.00297126  0.18590011    -0.59740
O941        O  0.42539424  0.05555205  0.18937124    -0.52860
C942        C  0.41309077  0.03023898  0.17854544     0.72900
Zr943      Zr  0.47638250  0.98540508  0.17725836     2.54710
O944        O  0.48074566  0.00194954  0.12214998    -0.80310
O945        O  0.43728836  0.95161713  0.15252009    -0.93730
Zr946      Zr  0.54361354  0.04730001  0.17837693     2.64680
O947        O  0.52983133  0.05748726  0.12346307    -0.98680
O948        O  0.58949534  0.07933477  0.16461574    -0.80740
O949        O  0.53116690  0.99305125  0.17764559    -0.84100
O950        O  0.48852618  0.03967700  0.17686293    -2.18810
O951        O  0.42039947  0.99695100  0.26171576    -0.67490
O952        O  0.41881611  0.04965271  0.25264286    -0.52060
C953        C  0.40504206  0.02266716  0.25583045     0.71280
O954        O  0.59967690  0.02447329  0.27340204    -0.60400
O955        O  0.59994114  0.97538913  0.25289649    -0.52380
C956        C  0.61422335  0.99917913  0.26469355     0.73080
O957        O  0.52975179  0.10257315  0.26475300    -0.71790
O958        O  0.47715888  0.10456866  0.25762118    -0.50470
C959        C  0.50387819  0.11839289  0.26106489     0.74470
O960        O  0.49255123  0.92337326  0.27089955    -0.67120
O961        O  0.54410701  0.92332218  0.25745822    -0.54320
C962        C  0.51827368  0.90873845  0.26356313     0.72850
Zr963      Zr  0.47559465  0.98026067  0.27229064     2.77540
O964        O  0.48089523  0.99153751  0.32813190    -0.97870
O965        O  0.43857116  0.94584892  0.30044910    -0.78690
Zr966      Zr  0.54468701  0.04550527  0.27261770     2.70070
O967        O  0.53194872  0.03948788  0.32840209    -0.79940
O968        O  0.58197389  0.07863818  0.30060723    -0.99020
Zr969      Zr  0.55003501  0.97072424  0.22589642     2.21500
Zr970      Zr  0.46879570  0.05852256  0.22619514     2.11130
O971        O  0.48887420  0.03544582  0.27417594    -2.47710
O972        O  0.53111566  0.99037685  0.27459753    -0.79730
O973        O  0.45667013  0.00407361  0.22534883    -0.71930
O974        O  0.56499654  0.02492435  0.22455290    -2.32890
O975        O  0.49486063  0.96106334  0.22393054    -2.29090
O976        O  0.52397510  0.06751751  0.22596598    -0.73690
H977        H  0.47915034  0.05058128  0.15911358     0.78310
H978        H  0.58716823  0.02835945  0.22106101     0.79400
H979        H  0.47925032  0.04519476  0.29219020     0.81620
H980        H  0.48810041  0.93962858  0.22146751     0.79230
H981        H  0.60016470  0.08283235  0.18498705     0.42260
H982        H  0.59168142  0.09227944  0.28403042     0.41230
H983        H  0.54658826  0.02312298  0.33623416     0.40910
H984        H  0.45932483  0.99648834  0.33527284     0.38850
H985        H  0.42928827  0.93248220  0.28393152     0.41980
H986        H  0.43473255  0.93330488  0.16710662     0.36760
H987        H  0.49860922  0.98968695  0.11390441     0.42880
H988        H  0.52280002  0.07967265  0.12284116     0.39290
H989        H  0.48566373  0.97094154  0.33826067     0.44210
H990        H  0.44769940  0.94307987  0.13360268     0.42940
H991        H  0.55023011  0.05786311  0.11213706     0.43070
H992        H  0.56892690  0.09304710  0.31318459     0.43430
O993        O  0.34861843  0.95381832  0.97394538    -0.75440
O994        O  0.32435126  0.94722487  0.02179204    -0.54350
C995        C  0.34487474  0.94011625  0.00101042     0.78290
O996        O  0.32633322  0.11079765  0.96804881    -0.60040
O997        O  0.29821365  0.11086756  0.92226308    -0.53070
C998        C  0.31948913  0.12163742  0.94042635     0.70300
O999        O  0.33500226  0.04592567  0.05255358    -0.74600
O1000       O  0.31500424  0.99756747  0.06500719    -0.55160
C1001       C  0.33173689  0.02205823  0.07125386     0.76300
O1002       O  0.33136052  0.02133328  0.89202054    -0.59740
O1003       O  0.30003748  0.06405810  0.88355878    -0.52860
C1004       C  0.32128376  0.04456996  0.87519359     0.72900
Zr1005     Zr  0.32600554  0.99736467  0.94367348     2.54710
O1006       O  0.38152287  0.01175699  0.94328362    -0.80310
O1007       O  0.33484405  0.95547866  0.90615861    -0.93730
Zr1008     Zr  0.31635844  0.06583160  0.00274062     2.64680
O1009       O  0.37314050  0.07363815  0.00326363    -0.98680
O1010       O  0.30885928  0.11019618  0.03752861    -0.80740
O1011       O  0.32571277  0.01135576  0.99716854    -0.84100
O1012       O  0.31755808  0.05150972  0.94961399    -2.18810
O1013       O  0.24238181  0.99719641  0.88776402    -0.67490
O1014       O  0.23623820  0.04968597  0.88428222    -0.52060
C1015       C  0.24107272  0.02314976  0.87117371     0.71280
O1016       O  0.22722397  0.03420811  0.06412633    -0.60400
O1017       O  0.25171776  0.98692369  0.06859722    -0.52380
C1018       C  0.23931997  0.01146948  0.08072137     0.73080
O1019       O  0.22599194  0.10665188  0.99204091    -0.71790
O1020       O  0.23703341  0.11285573  0.93993305    -0.50470
C1021       C  0.23034061  0.12426798  0.96714114     0.74470
O1022       O  0.24063497  0.92770966  0.96745036    -0.67120
O1023       O  0.26255527  0.93005300  0.01620669    -0.54320
C1024       C  0.25190271  0.91434250  0.99268640     0.72850
Zr1025     Zr  0.23355242  0.98186591  0.94463423     2.77540
O1026       O  0.17628867  0.98024068  0.94720871    -0.97870
O1027       O  0.21232159  0.94226578  0.90956798    -0.78690
Zr1028     Zr  0.22347375  0.05000318  0.00743184     2.70070
O1029       O  0.16915810  0.03651858  0.99535055    -0.79940
O1030       O  0.18830727  0.07948995  0.04134264    -0.99020
Zr1031     Zr  0.28193592  0.98404190  0.02035087     2.21500
Zr1032     Zr  0.26658057  0.06449715  0.92965013     2.11130
O1033       O  0.22244369  0.03679522  0.95259330    -2.47710
O1034       O  0.23068821  0.99473724  0.99963101    -0.79730
O1035       O  0.27639922  0.00990036  0.92226774    -0.71930
O1036       O  0.27431509  0.03880749  0.02734938    -2.32890
O1037       O  0.28374250  0.96947453  0.96627636    -2.29090
O1038       O  0.26612019  0.07756726  0.98354890    -0.73690
H1039       H  0.33435380  0.06226104  0.93837569     0.78310
H1040       H  0.27699987  0.04501545  0.04881866     0.79400
H1041       H  0.20322794  0.04347020  0.94252555     0.81620
H1042       H  0.29019282  0.94808411  0.96305205     0.79230
H1043       H  0.28663673  0.10840829  0.04438017     0.42260
H1044       H  0.20182699  0.09585140  0.05083970     0.41230
H1045       H  0.16239165  0.02253063  0.01306330     0.40910
H1046       H  0.17117937  0.97986620  0.96998915     0.38850
H1047       H  0.23086448  0.93402885  0.89829809     0.41980
H1048       H  0.32357844  0.93688377  0.91512749     0.36760
H1049       H  0.38772120  0.01108099  0.96576483     0.42880
H1050       H  0.37953262  0.07326153  0.98080415     0.39290
H1051       H  0.16895454  0.00094168  0.93924081     0.44210
H1052       H  0.35740377  0.95030662  0.90835287     0.42940
H1053       H  0.37612299  0.09585944  0.00941424     0.43070
H1054       H  0.17438510  0.09133506  0.02679407     0.43430
O1055       O  0.68317595  0.00890051  0.06207390    -0.75440
O1056       O  0.71947320  0.97072453  0.07226564    -0.54350
C1057       C  0.69325033  0.98433732  0.07683199     0.78290
O1058       O  0.72793372  0.01570367  0.90400486    -0.60040
O1059       O  0.71802189  0.06683370  0.90661453    -0.53070
C1060       C  0.71303238  0.03975088  0.89435494     0.70300
O1061       O  0.71577577  0.93893942  0.97276359    -0.74600
O1062       O  0.72071311  0.93787711  0.02572273    -0.55160
C1063       C  0.70861663  0.92821785  0.00002311     0.76300
O1064       O  0.69207526  0.10307934  0.01229019    -0.59740
O1065       O  0.71086960  0.11402360  0.96274518    -0.52860
C1066       C  0.69437353  0.12039039  0.98749081     0.72900
Zr1067     Zr  0.70096813  0.04874036  0.02437125     2.54710
O1068       O  0.64484857  0.04848002  0.01320538    -0.80310
O1069       O  0.69016888  0.07636458  0.07318546    -0.93730
Zr1070     Zr  0.71489984  0.99228152  0.95412158     2.64680
O1071       O  0.65760913  0.99331195  0.95168787    -0.98680
O1072       O  0.69970779  0.95675125  0.91224968    -0.80740
O1073       O  0.70928964  0.99664440  0.00900071    -0.84100
O1074       O  0.70504539  0.04475148  0.96908272    -2.18810
O1075       O  0.77904023  0.11943439  0.01810246    -0.67490
O1076       O  0.77635889  0.12302747  0.96501434    -0.52060
C1077       C  0.77574325  0.13587726  0.99210872     0.71280
O1078       O  0.81423685  0.94537262  0.97657490    -0.60400
O1079       O  0.79382322  0.93809053  0.02574947    -0.52380
C1080       C  0.80535888  0.92723234  0.00017209     0.73080
O1081       O  0.79932418  0.02253781  0.90672630    -0.71790
O1082       O  0.78080418  0.07249240  0.90406936    -0.50470
C1083       C  0.79044066  0.04730770  0.89070349     0.74470
O1084       O  0.79110900  0.03896769  0.08766788    -0.67120
O1085       O  0.78031043  0.98666933  0.08427087    -0.54320
C1086       C  0.78548358  0.01139141  0.10056241     0.72850
Zr1087     Zr  0.79276482  0.06334867  0.03305536     2.77540
O1088       O  0.84985833  0.06826237  0.03055638    -0.97870
O1089       O  0.80884019  0.10049797  0.07313862    -0.78690
Zr1090     Zr  0.80807653  0.00347688  0.96215862     2.70070
O1091       O  0.86089886  0.02342801  0.97179877    -0.79940
O1092       O  0.84424200  0.97648107  0.92722264    -0.99020
Zr1093     Zr  0.75770275  0.98081680  0.03226708     2.21500
Zr1094     Zr  0.75108548  0.07381600  0.95317438     2.11130
O1095       O  0.80003819  0.05745301  0.97697768    -2.47710
O1096       O  0.80399616  0.01008576  0.01809220    -0.79730
O1097       O  0.74538612  0.07871446  0.00867518    -0.71930
O1098       O  0.76242495  0.97461510  0.97668022    -2.32890
O1099       O  0.74759459  0.03322476  0.04861997    -2.29090
O1100       O  0.76036675  0.02071405  0.93942199    -0.73690
H1101       H  0.68637034  0.05309199  0.95952043     0.78310
H1102       H  0.76446916  0.95376610  0.96880535     0.79400
H1103       H  0.81696140  0.07072879  0.96912116     0.81620
H1104       H  0.74133813  0.03448244  0.07039761     0.79230
H1105       H  0.71985926  0.94877544  0.90390321     0.42260
H1106       H  0.83050557  0.96506451  0.91238472     0.41230
H1107       H  0.87112819  0.00645832  0.98425340     0.40910
H1108       H  0.85763870  0.04634826  0.03047953     0.38850
H1109       H  0.78904657  0.10623371  0.08391738     0.41980
H1110       H  0.69550123  0.06149353  0.09055543     0.36760
H1111       H  0.63740159  0.02733775  0.02022583     0.42880
H1112       H  0.65076911  0.01243816  0.96265758     0.39290
H1113       H  0.85478798  0.07691016  0.00928841     0.44210
H1114       H  0.66696829  0.07794413  0.07403191     0.42940
H1115       H  0.65267002  0.99728720  0.92920986     0.43070
H1116       H  0.85429830  0.99334342  0.91420555     0.43430
O1117       O  0.03763815  0.85703480  0.56020401    -0.75440
O1118       O  0.99243665  0.83199414  0.57630641    -0.54350
C1119       C  0.01462997  0.85244030  0.57932333     0.78290
O1120       O  0.99899745  0.80937450  0.40243069    -0.60040
O1121       O  0.05122625  0.80643831  0.39701460    -0.53070
C1122       C  0.02408029  0.81422601  0.38651890     0.70300
O1123       O  0.94699925  0.85003658  0.48486150    -0.74600
O1124       O  0.94167766  0.83131941  0.53531569    -0.55160
C1125       C  0.93428089  0.84975929  0.51228426     0.76300
O1126       O  0.09881844  0.84986912  0.47555199    -0.59740
O1127       O  0.10301185  0.81683160  0.43374775    -0.52860
C1128       C  0.11064965  0.84138462  0.44925478     0.72900
Zr1129     Zr  0.05806364  0.83590725  0.51237480     2.54710
O1130       O  0.05704230  0.89306330  0.50682393    -0.80310
O1131       O  0.10479976  0.83823157  0.54528279    -0.93730
Zr1132     Zr  0.98875355  0.82755236  0.45452420     2.64680
O1133       O  0.00362239  0.88073954  0.43744931    -0.98680
O1134       O  0.94267384  0.83902282  0.42250838    -0.80740
O1135       O  0.00290618  0.83573308  0.50731837    -0.84100
O1136       O  0.04329682  0.82908513  0.45952333    -2.18810
O1137       O  0.11308344  0.74847657  0.51000293    -0.67490
O1138       O  0.11429086  0.75556089  0.45679217    -0.52060
C1139       C  0.12831686  0.75174254  0.48355997     0.71280
O1140       O  0.93227729  0.73790537  0.48856242    -0.60400
O1141       O  0.93040477  0.76614300  0.53390811    -0.52380
C1142       C  0.91703165  0.75119763  0.51110673     0.73080
O1143       O  0.99789783  0.73733765  0.41120489    -0.71790
O1144       O  0.05037437  0.74140613  0.40441276    -0.50470
C1145       C  0.02247826  0.73906666  0.39306131     0.74470
O1146       O  0.04285008  0.75147886  0.58569117    -0.67120
O1147       O  0.99246715  0.76915763  0.58936836    -0.54320
C1148       C  0.01895030  0.76134656  0.60176204     0.72850
Zr1149     Zr  0.05764571  0.74353478  0.52939290     2.77540
O1150       O  0.05103283  0.68664348  0.52667032    -0.97870
O1151       O  0.09467825  0.72110534  0.56710852    -0.78690
Zr1152     Zr  0.98707685  0.73450080  0.46923692     2.70070
O1153       O  0.99973485  0.68034247  0.48370296    -0.79940
O1154       O  0.95127754  0.69901260  0.44217867    -0.99020
Zr1155     Zr  0.98252409  0.79197832  0.53743626     2.21500
Zr1156     Zr  0.06267650  0.77820369  0.44568238     2.11130
O1157       O  0.04313703  0.73368953  0.47578785    -2.47710
O1158       O  0.00139982  0.74087215  0.52354401    -0.79730
O1159       O  0.07780747  0.78635064  0.49877317    -0.71930
O1160       O  0.96835756  0.78525312  0.48395001    -2.32890
O1161       O  0.03839083  0.79378683  0.54315947    -2.29090
O1162       O  0.00722675  0.77765464  0.44023859    -0.73690
H1163       H  0.05072220  0.84574150  0.44558251     0.78310
H1164       H  0.94654793  0.78933946  0.48037093     0.79400
H1165       H  0.05217366  0.71438577  0.46826287     0.81620
H1166       H  0.04504390  0.79988818  0.56383870     0.79230
H1167       H  0.93700513  0.81873129  0.41278246     0.42260
H1168       H  0.94061316  0.71242661  0.42623784     0.41230
H1169       H  0.98520428  0.67506750  0.50133788     0.40910
H1170       H  0.07242451  0.67857979  0.52257666     0.38850
H1171       H  0.10463829  0.73955252  0.57713158     0.41980
H1172       H  0.09927378  0.82576203  0.56447744     0.36760
H1173       H  0.04090101  0.89721651  0.49054677     0.42880
H1174       H  0.00197887  0.88047188  0.41416939     0.39290
H1175       H  0.04618543  0.67977960  0.54859156     0.44210
H1176       H  0.10574208  0.86030172  0.55243797     0.42940
H1177       H  0.98590676  0.89404785  0.44427039     0.43070
H1178       H  0.96498209  0.68513954  0.42968825     0.43430
O1179       O  0.84889994  0.01327377  0.42916224    -0.75440
O1180       O  0.82007535  0.96863848  0.42164084    -0.54350
C1181       C  0.84289704  0.98731418  0.41506323     0.78290
O1182       O  0.83302896  0.01508642  0.58413092    -0.60040
O1183       O  0.80598329  0.06084711  0.58679085    -0.53070
C1184       C  0.82577253  0.04088508  0.59759587     0.70300
O1185       O  0.84815643  0.97043121  0.49017465    -0.74600
O1186       O  0.82053378  0.93349679  0.46744181    -0.55160
C1187       C  0.84532359  0.94219185  0.48179627     0.76300
O1188       O  0.84653994  0.09065053  0.50103509    -0.59740
O1189       O  0.81470973  0.09955856  0.54346414    -0.52860
C1190       C  0.83938213  0.10480709  0.52683192     0.72900
Zr1191     Zr  0.82664360  0.04681652  0.46971810     2.54710
O1192       O  0.88101209  0.02982064  0.47322894    -0.80310
O1193       O  0.82743960  0.08986363  0.43106991    -0.93730
Zr1194     Zr  0.82239244  0.98491817  0.53733672     2.64680
O1195       O  0.87854809  0.97666137  0.54390731    -0.98680
O1196       O  0.81625353  0.93781561  0.57048969    -0.80740
O1197       O  0.79549526  0.00820723  0.49484986    -0.84100
O1198       O  0.82574472  0.03826115  0.52479852    -2.18810
O1199       O  0.74038527  0.10281437  0.47186167    -0.67490
O1200       O  0.75259546  0.11004548  0.52345690    -0.52060
C1201       C  0.74622692  0.12075528  0.49551624     0.71280
O1202       O  0.73334654  0.92395261  0.51704396    -0.60400
O1203       O  0.74503533  0.92405465  0.46514412    -0.52380
C1204       C  0.73985419  0.90932787  0.49124542     0.73080
O1205       O  0.74093804  0.99895750  0.58829114    -0.71790
O1206       O  0.74281946  0.05206629  0.58641068    -0.50470
C1207       C  0.74287089  0.02599955  0.60223200     0.74470
O1208       O  0.73539044  0.02688930  0.40752650    -0.67120
O1209       O  0.75282023  0.97651900  0.40755781    -0.54320
C1210       C  0.74328851  0.00164387  0.39314597     0.72850
Zr1211     Zr  0.73394360  0.04548661  0.46210854     2.77540
O1212       O  0.67706715  0.04240458  0.46916589    -0.97870
O1213       O  0.70412666  0.07798495  0.42515093    -0.78690
Zr1214     Zr  0.73149232  0.98021455  0.53305446     2.70070
O1215       O  0.67531139  0.98996426  0.52904155    -0.79940
O1216       O  0.70172835  0.94604723  0.56921967    -0.99020
Zr1217     Zr  0.77791637  0.97032460  0.45901826     2.21500
Zr1218     Zr  0.77540650  0.05933905  0.53975701     2.11130
O1219       O  0.72934835  0.03539647  0.51793571    -2.47710
O1220       O  0.72909001  0.99024784  0.47660419    -0.79730
O1221       O  0.77900377  0.06979035  0.48450746    -0.71930
O1222       O  0.78004919  0.95726615  0.51450224    -2.32890
O1223       O  0.78302150  0.02439604  0.44323496    -2.29090
O1224       O  0.77569832  0.00508662  0.55613505    -0.73690
H1225       H  0.84405187  0.04625820  0.53545953     0.78310
H1226       H  0.78487656  0.93550373  0.51916649     0.79400
H1227       H  0.71085694  0.04512410  0.52661336     0.81620
H1228       H  0.78800784  0.02756743  0.42124283     0.79230
H1229       H  0.83097828  0.92243773  0.56137860     0.42260
H1230       H  0.71793122  0.93518650  0.58201908     0.41230
H1231       H  0.66727584  0.97271015  0.51579307     0.40910
H1232       H  0.67247269  0.02012345  0.47473708     0.38850
H1233       H  0.71987955  0.09204564  0.41481954     0.41980
H1234       H  0.80531195  0.09177286  0.42414550     0.36760
H1235       H  0.88473884  0.02625935  0.49602288     0.42880
H1236       H  0.88679865  0.99700303  0.55157322     0.39290
H1237       H  0.67234916  0.05428514  0.48847033     0.44210
H1238       H  0.83852987  0.08115855  0.41263090     0.42940
H1239       H  0.88024718  0.96204511  0.56224794     0.43070
H1240       H  0.69132657  0.96039168  0.58411666     0.43430
O1241       O  0.18316609  0.95686652  0.48358390    -0.75440
O1242       O  0.20960521  0.95058871  0.43710330    -0.54350
C1243       C  0.18794445  0.94375386  0.45685380     0.78290
O1244       O  0.19963579  0.11464915  0.46487318    -0.60040
O1245       O  0.22540649  0.12430704  0.51030743    -0.53070
C1246       C  0.20837177  0.13280735  0.48656704     0.70300
O1247       O  0.17913560  0.01645013  0.42591913    -0.74600
O1248       O  0.21216204  0.99306748  0.39401669    -0.55160
C1249       C  0.18656378  0.00787306  0.39846872     0.76300
O1250       O  0.22108063  0.02231761  0.56367010    -0.59740
O1251       O  0.21731926  0.07430187  0.56163028    -0.52860
C1252       C  0.20833947  0.04756331  0.57281000     0.72900
Zr1253     Zr  0.20594043  0.99934731  0.51448856     2.54710
O1254       O  0.15102885  0.01139803  0.52474184    -0.80310
O1255       O  0.19800264  0.95622989  0.55234700    -0.93730
Zr1256     Zr  0.20216305  0.06261361  0.44778812     2.64680
O1257       O  0.14729190  0.07558987  0.45797256    -0.98680
O1258       O  0.19467619  0.08665576  0.39578499    -0.80740
O1259       O  0.20444343  0.00913367  0.46036407    -0.84100
O1260       O  0.20484074  0.05428196  0.50260191    -2.18810
O1261       O  0.29521103  0.01392074  0.56366256    -0.67490
O1262       O  0.28399774  0.06597037  0.56704810    -0.52060
C1263       C  0.29071072  0.03914179  0.57999023     0.71280
O1264       O  0.29178237  0.04558170  0.38368717    -0.60400
O1265       O  0.27463776  0.99463517  0.38385210    -0.52380
C1266       C  0.28308748  0.02015146  0.36932470     0.73080
O1267       O  0.28732040  0.12076958  0.45395935    -0.71790
O1268       O  0.28579630  0.12237976  0.50705445    -0.50470
C1269       C  0.28582675  0.13637358  0.47998087     0.74470
O1270       O  0.29556149  0.94013298  0.49080715    -0.67120
O1271       O  0.27785860  0.93976938  0.44057562    -0.54320
C1272       C  0.28632462  0.92523828  0.46584736     0.72850
Zr1273     Zr  0.29921288  0.99689848  0.50746782     2.77540
O1274       O  0.35559433  0.00355663  0.49885979    -0.97870
O1275       O  0.32878080  0.96262085  0.54292305    -0.78690
Zr1276     Zr  0.29597831  0.06455139  0.43926594     2.70070
O1277       O  0.35237646  0.06101193  0.44802034    -0.79940
O1278       O  0.32252659  0.09912308  0.40101247    -0.99020
Zr1279     Zr  0.24997154  0.98892406  0.43533463     2.21500
Zr1280     Zr  0.25483480  0.07548427  0.51865099     2.11130
O1281       O  0.30081705  0.05279935  0.49488001    -2.47710
O1282       O  0.29929991  0.00922616  0.45191779    -0.79730
O1283       O  0.25479016  0.02023711  0.53060178    -0.71930
O1284       O  0.24701294  0.04368418  0.42199208    -2.32890
O1285       O  0.24986738  0.97606853  0.49043515    -2.29090
O1286       O  0.25052319  0.08452140  0.46364952    -0.73690
H1287       H  0.18739582  0.06445955  0.51273234     0.78310
H1288       H  0.24160745  0.04785599  0.40029350     0.79400
H1289       H  0.31944021  0.06260383  0.50337405     0.81620
H1290       H  0.24526498  0.95420992  0.49504964     0.79230
H1291       H  0.17207424  0.09192395  0.39490210     0.42260
H1292       H  0.30555261  0.11208897  0.39168551     0.41230
H1293       H  0.36011714  0.04795091  0.43053639     0.40910
H1294       H  0.35846597  0.00324574  0.47570455     0.38850
H1295       H  0.31285655  0.94808483  0.55228305     0.41980
H1296       H  0.20841260  0.93793161  0.54271897     0.36760
H1297       H  0.14204209  0.01568774  0.50360938     0.42880
H1298       H  0.14560586  0.07906581  0.48091833     0.39290
H1299       H  0.36060486  0.02543327  0.50489833     0.44210
H1300       H  0.17525064  0.95128543  0.55122467     0.42940
H1301       H  0.14415051  0.09671751  0.44828377     0.43070
H1302       H  0.33501193  0.11404305  0.41368369     0.43430
O1303       O  0.91963893  0.29470779  0.46145446    -0.75440
O1304       O  0.91745366  0.29293680  0.51472938    -0.54350
C1305       C  0.90389260  0.29332987  0.48771780     0.78290
O1306       O  0.01421342  0.18387736  0.42437913    -0.60040
O1307       O  0.05717968  0.21302091  0.40976687    -0.53070
C1308       C  0.04000182  0.18804345  0.40866642     0.70300
O1309       O  0.93743530  0.19493487  0.49679704    -0.74600
O1310       O  0.92783795  0.22897684  0.53675655    -0.55160
C1311       C  0.92322367  0.20320608  0.52214982     0.76300
O1312       O  0.99475194  0.29884623  0.39018088    -0.59740
O1313       O  0.04369154  0.27735351  0.38823405    -0.52860
C1314       C  0.01863430  0.28812797  0.37476496     0.72900
Zr1315     Zr  0.97571988  0.30350454  0.44530328     2.54710
O1316       O  0.93915191  0.32599926  0.40714652    -0.80310
O1317       O  0.97925593  0.36058637  0.44931652    -0.93730
Zr1318     Zr  0.97926351  0.21128494  0.46085419     2.64680
O1319       O  0.94069329  0.21451150  0.41863620    -0.98680
O1320       O  0.96642967  0.15535054  0.46187894    -0.80740
O1321       O  0.95570011  0.25947859  0.47413531    -0.84100
O1322       O  0.99865290  0.25437418  0.43133343    -2.18810
O1323       O  0.09844245  0.31530087  0.49100226    -0.67490
O1324       O  0.10071004  0.29187743  0.44307363    -0.52060
C1325       C  0.11401017  0.30452130  0.46703805     0.71280
O1326       O  0.01829799  0.21861617  0.57524120    -0.60400
O1327       O  0.97188357  0.24415423  0.57935347    -0.52380
C1328       C  0.99422658  0.22737958  0.59078611     0.73080
O1329       O  0.09331838  0.20866493  0.50478109    -0.71790
O1330       O  0.10194573  0.23193880  0.45673088    -0.50470
C1331       C  0.11073957  0.21581232  0.48115234     0.74470
O1332       O  0.02823867  0.31191677  0.56761353    -0.67120
O1333       O  0.97585438  0.30396366  0.57206388    -0.54320
C1334       C  0.00290272  0.30844225  0.58469433     0.72850
Zr1335     Zr  0.04222116  0.31663015  0.51001209     2.77540
O1336       O  0.07405128  0.35256728  0.54102634    -0.97870
O1337       O  0.02784657  0.37041973  0.49581282    -0.78690
Zr1338     Zr  0.04344796  0.22391861  0.52484369     2.70070
O1339       O  0.08285731  0.23549752  0.56433520    -0.79940
O1340       O  0.04355855  0.16719587  0.53436641    -0.99020
Zr1341     Zr  0.96731944  0.26900919  0.52801681     2.21500
Zr1342     Zr  0.05360667  0.25899895  0.44246921     2.11130
O1343       O  0.06376802  0.26729821  0.49684423    -2.47710
O1344       O  0.02179735  0.27251342  0.53795207    -0.79730
O1345       O  0.03115595  0.30896721  0.45509213    -0.71930
O1346       O  0.98997533  0.21951271  0.51475889    -2.32890
O1347       O  0.98664646  0.31452497  0.49955606    -2.29090
O1348       O  0.03377167  0.21414408  0.47122165    -0.73690
H1349       H  0.99451575  0.24764981  0.41015686     0.78310
H1350       H  0.98292892  0.20223519  0.52813239     0.79400
H1351       H  0.08546376  0.26590801  0.50286594     0.81620
H1352       H  0.97607557  0.33326205  0.50649750     0.79230
H1353       H  0.97848157  0.14668940  0.47994810     0.42260
H1354       H  0.04744262  0.15808949  0.51337744     0.41230
H1355       H  0.08336260  0.25878771  0.56531202     0.40910
H1356       H  0.09004505  0.33900475  0.55123346     0.38850
H1357       H  0.04178096  0.37602331  0.47779239     0.41980
H1358       H  0.95735679  0.36750965  0.45283367     0.36760
H1359       H  0.92512613  0.30831380  0.40134729     0.42880
H1360       H  0.94976719  0.20186457  0.40148405     0.39290
H1361       H  0.08601224  0.36554526  0.52543947     0.44210
H1362       H  0.98453561  0.36817510  0.42772323     0.42940
H1363       H  0.92259766  0.20181937  0.42652221     0.43070
H1364       H  0.06315416  0.16322706  0.54628314     0.43430
O1365       O  0.03108024  0.92459318  0.20980838    -0.75440
O1366       O  0.97885483  0.92174532  0.21821914    -0.54350
C1367       C  0.00555533  0.90835617  0.21534461     0.78290
O1368       O  0.09735980  0.00909205  0.30386763    -0.60040
O1369       O  0.10301655  0.05595864  0.27716997    -0.53070
C1370       C  0.11152677  0.03508016  0.29736305     0.70300
O1371       O  0.03219401  0.92669177  0.30038766    -0.74600
O1372       O  0.98307162  0.91850518  0.28125572    -0.55160
C1373       C  0.00785043  0.90953213  0.29605554     0.76300
O1374       O  0.09971841  0.00115870  0.19277506    -0.59740
O1375       O  0.10340131  0.05040368  0.21312740    -0.52860
C1376       C  0.11585401  0.02583726  0.20071829     0.72900
Zr1377     Zr  0.04447290  0.98133335  0.19821784     2.54710
O1378       O  0.07674990  0.94722176  0.16595929    -0.80310
O1379       O  0.02662851  0.98780446  0.14402374    -0.93730
Zr1380     Zr  0.05183648  0.97863169  0.29135565     2.64680
O1381       O  0.09549460  0.94179007  0.29174848    -0.98680
O1382       O  0.05060452  0.97724831  0.34881856    -0.80740
O1383       O  0.02779690  0.95825604  0.24636644    -0.84100
O1384       O  0.06920103  0.00166402  0.24401972    -2.18810
O1385       O  0.99297300  0.10169323  0.20552815    -0.67490
O1386       O  0.04456756  0.10597477  0.21966263    -0.52060
C1387       C  0.01793163  0.11796314  0.21184335     0.71280
O1388       O  0.94506864  0.00606588  0.32227079    -0.60400
O1389       O  0.93546339  0.96167451  0.29414872    -0.52380
C1390       C  0.93110072  0.97961924  0.31775403     0.73080
O1391       O  0.02177443  0.07819311  0.32133136    -0.71790
O1392       O  0.06150602  0.09388421  0.28869623    -0.50470
C1393       C  0.04630874  0.09501946  0.31494236     0.74470
O1394       O  0.92197157  0.02815991  0.21916091    -0.67120
O1395       O  0.92046971  0.97587636  0.23118806    -0.54320
C1396       C  0.90670688  0.00242137  0.22619545     0.72850
Zr1397     Zr  0.97684913  0.04537122  0.20661859     2.77540
O1398       O  0.93702663  0.07775874  0.18084951    -0.97870
O1399       O  0.97930308  0.03568881  0.15025588    -0.78690
Zr1400     Zr  0.98515657  0.04031229  0.29962540     2.70070
O1401       O  0.94608142  0.08191644  0.29605636    -0.79940
O1402       O  0.97681573  0.04504807  0.35623545    -0.99020
Zr1403     Zr  0.97295766  0.96675698  0.25157625     2.21500
Zr1404     Zr  0.05638158  0.05626942  0.24595678     2.11130
O1405       O  0.00141384  0.06588683  0.25275316    -2.47710
O1406       O  0.96000000  0.02099650  0.25450223    -0.79730
O1407       O  0.03214847  0.03655512  0.19925845    -0.71930
O1408       O  0.99791839  0.98632553  0.29760918    -2.32890
O1409       O  0.98884321  0.99043943  0.20215533    -2.29090
O1410       O  0.03951406  0.03208780  0.29433878    -0.73690
H1411       H  0.09136878  0.99759520  0.24561496     0.78310
H1412       H  0.99199853  0.97469787  0.31642983     0.79400
H1413       H  0.99713710  0.08752317  0.25764710     0.81620
H1414       H  0.97751791  0.98100717  0.18496398     0.79230
H1415       H  0.03682637  0.95913471  0.35457552     0.42260
H1416       H  0.99710396  0.03905436  0.36593702     0.41230
H1417       H  0.94189489  0.08467758  0.27323754     0.40910
H1418       H  0.93144860  0.09387556  0.19648706     0.38850
H1419       H  0.99464910  0.05144964  0.14198778     0.41980
H1420       H  0.02158851  0.96618825  0.13710713     0.36760
H1421       H  0.08844615  0.93398933  0.18130840     0.42880
H1422       H  0.11140686  0.95132224  0.27736228     0.39290
H1423       H  0.94820085  0.08961180  0.16385719     0.44210
H1424       H  0.04572989  0.99392571  0.13192186     0.42940
H1425       H  0.10477547  0.94359386  0.31302671     0.43070
H1426       H  0.97482427  0.06790317  0.36002058     0.43430
O1427       O  0.00855258  0.97788260  0.65122009    -0.75440
O1428       O  0.04838826  0.95922560  0.68121615    -0.54350
C1429       C  0.02774631  0.95624148  0.65952625     0.78290
O1430       O  0.01477911  0.13321205  0.67814920    -0.60040
O1431       O  0.97067527  0.13520254  0.70826299    -0.53070
C1432       C  0.99097002  0.14771437  0.68948947     0.70300
O1433       O  0.08313386  0.05945275  0.64779898    -0.74600
O1434       O  0.09465014  0.01084778  0.66825633    -0.55160
C1435       C  0.09858037  0.03371368  0.64827629     0.76300
O1436       O  0.93078393  0.04190907  0.67752513    -0.59740
O1437       O  0.92448274  0.08515156  0.70775395    -0.52860
C1438       C  0.91456265  0.06468129  0.68808578     0.72900
Zr1439     Zr  0.97973594  0.01551449  0.68112313     2.54710
O1440       O  0.96186817  0.01615776  0.62666883    -0.80310
O1441       O  0.94419805  0.97103922  0.69070056    -0.93730
Zr1442     Zr  0.04107646  0.08327382  0.67612025     2.64680
O1443       O  0.02703642  0.09187753  0.62102501    -0.98680
O1444       O  0.08204295  0.12353548  0.67134281    -0.80740
O1445       O  0.03266758  0.02856839  0.67220002    -0.84100
O1446       O  0.98768574  0.07053525  0.68317558    -2.18810
O1447       O  0.93623043  0.01704714  0.77006759    -0.67490
O1448       O  0.93007275  0.06978111  0.76913830    -0.52060
C1449       C  0.91837740  0.04173023  0.76983065     0.71280
O1450       O  0.11379907  0.05498120  0.75925836    -0.60400
O1451       O  0.11396903  0.00840108  0.73347276    -0.52380
C1452       C  0.12841550  0.03150106  0.74645973     0.73080
O1453       O  0.04053287  0.13043058  0.76322583    -0.71790
O1454       O  0.98764220  0.13074561  0.76731526    -0.50470
C1455       C  0.01404129  0.14548050  0.76483062     0.74470
O1456       O  0.01601728  0.95117531  0.76771107    -0.67120
O1457       O  0.06234863  0.95230652  0.74048028    -0.54320
C1458       C  0.04022173  0.93745462  0.75538872     0.72850
Zr1459     Zr  0.99380422  0.00524109  0.77330125     2.77540
O1460       O  0.00262389  0.00956253  0.82983623    -0.97870
O1461       O  0.96327956  0.96601056  0.80296545    -0.78690
Zr1462     Zr  0.05838345  0.07422628  0.76767792     2.70070
O1463       O  0.05480311  0.06665951  0.82458909    -0.79940
O1464       O  0.09779496  0.10847711  0.79117164    -0.99020
Zr1465     Zr  0.06091969  0.00347487  0.71392425     2.21500
Zr1466     Zr  0.97433656  0.08530925  0.73579627     2.11130
O1467       O  0.00393159  0.06088589  0.77797012    -2.47710
O1468       O  0.04843566  0.01856178  0.76665396    -0.79730
O1469       O  0.96585431  0.03030187  0.73219953    -0.71930
O1470       O  0.07162958  0.05871331  0.71570852    -2.32890
O1471       O  0.00714002  0.98926909  0.72156218    -2.29090
O1472       O  0.02825594  0.09805629  0.72736024    -0.73690
H1473       H  0.97526645  0.08164004  0.66760091     0.78310
H1474       H  0.09293556  0.06388139  0.70964398     0.79400
H1475       H  0.99699907  0.06889138  0.79797880     0.81620
H1476       H  0.00259315  0.96736085  0.71793348     0.79230
H1477       H  0.10128730  0.11350501  0.67974496     0.42260
H1478       H  0.10407604  0.12331774  0.77397621     0.41230
H1479       H  0.07365353  0.05420573  0.83012217     0.40910
H1480       H  0.02552787  0.01302171  0.83203891     0.38850
H1481       H  0.95395602  0.95233419  0.78672718     0.41980
H1482       H  0.95679029  0.95206317  0.68639268     0.36760
H1483       H  0.97255968  0.03471369  0.61692860     0.42880
H1484       H  0.00643747  0.10256954  0.62154761     0.39290
H1485       H  0.99283937  0.02955943  0.83621008     0.44210
H1486       H  0.92891812  0.97217858  0.67316814     0.42940
H1487       H  0.04195127  0.10835332  0.61338881     0.43070
H1488       H  0.08609795  0.12156748  0.80627687     0.43430
C1489       C  0.00805053  0.27659803  0.21848833     0.00410
C1490       C  0.00892525  0.25303162  0.24189263     0.00410
C1491       C  0.74957554  0.00663697  0.23532923     0.00410
C1492       C  0.77171194  0.00020983  0.25817051     0.00410
C1493       C  0.01222999  0.75389551  0.23640276     0.00410
C1494       C  0.01663220  0.77657630  0.25905104     0.00410
C1495       C  0.27343898  0.02318519  0.21322362     0.00410
C1496       C  0.24916106  0.02687497  0.23445113     0.00410
C1497       C  0.27136125  0.29119986  0.47691937     0.00410
C1498       C  0.24729007  0.26932041  0.47524377     0.00410
C1499       C  0.74803273  0.27918652  0.49792393     0.00410
C1500       C  0.76980803  0.25678690  0.48872821     0.00410
C1501       C  0.26184897  0.78823468  0.47382424     0.00410
C1502       C  0.28636549  0.76755787  0.46855873     0.00410
C1503       C  0.28670333  0.03000064  0.73975351     0.00410
C1504       C  0.26427077  0.03180905  0.71653860     0.00410
C1505       C  0.24004229  0.28146743  0.98079635     0.00410
C1506       C  0.26256687  0.25836373  0.98493195     0.00410
C1507       C  0.26267366  0.75724512  0.99386518     0.00410
C1508       C  0.28591078  0.77981253  0.99668061     0.00410
C1509       C  0.51895789  0.75454269  0.24250289     0.00410
C1510       C  0.51786906  0.77783497  0.21955874     0.00410
C1511       C  0.50003170  0.27771967  0.25368476     0.00410
C1512       C  0.49872015  0.25502111  0.23067680     0.00410
C1513       C  0.51090872  0.29868063  0.72915959     0.00410
C1514       C  0.51010669  0.27612255  0.75279329     0.00410
C1515       C  0.00956674  0.30163647  0.74276440     0.00410
C1516       C  0.01599440  0.27837999  0.72116143     0.00410
C1517       C  0.76448901  0.29205688  0.98964371     0.00410
C1518       C  0.74125382  0.27057203  0.99783372     0.00410
C1519       C  0.27775669  0.53212222  0.24592496     0.00410
C1520       C  0.25629360  0.53323531  0.22168241     0.00410
C1521       C  0.75253697  0.50659369  0.25664692     0.00410
C1522       C  0.77574557  0.51103910  0.23380810     0.00410
C1523       C  0.27597569  0.52813282  0.72103133     0.00410
C1524       C  0.25378255  0.52919281  0.74491746     0.00410
C1525       C  0.04371859  0.77785976  0.75473872     0.00410
C1526       C  0.03886892  0.80138693  0.73239064     0.00410
C1527       C  0.76142216  0.02825706  0.75615028     0.00410
C1528       C  0.78520642  0.02886891  0.73397623     0.00410
C1529       C  0.76609356  0.79388705  0.99916552     0.00410
C1530       C  0.78845824  0.77060347  0.99720746     0.00410
C1531       C  0.75384862  0.54219981  0.72882365     0.00410
C1532       C  0.77439250  0.54808028  0.75309531     0.00410
C1533       C  0.76197219  0.75503649  0.48985917     0.00410
C1534       C  0.78256307  0.77789887  0.50005366     0.00410
C1535       C  0.53834063  0.77461040  0.72066207     0.00410
C1536       C  0.54129987  0.79915804  0.74159453     0.00410
C1537       C  0.83524174  0.00655516  0.75706410    -0.20450
C1538       C  0.81920839  0.03245326  0.74395232    -0.07020
C1539       C  0.83513476  0.06177916  0.74228052     0.13850
C1540       C  0.86627178  0.06435770  0.75344656    -0.20510
C1541       C  0.88322403  0.03805022  0.76489962    -0.07030
C1542       C  0.86685986  0.00871113  0.76710471     0.13840
C1543       C  0.88218153  0.97932772  0.77996311    -0.23860
H1544       H  0.82321281  0.98407429  0.75858947     0.15120
H1545       H  0.87795912  0.08705434  0.75147755     0.15150
C1546       C  0.81975505  0.09041205  0.72787276    -0.23810
H1547       H  0.86513235  0.95948197  0.78244071     0.05360
H1548       H  0.89207399  0.98386634  0.80366172     0.08590
H1549       H  0.90097414  0.97161971  0.76368407     0.08590
H1550       H  0.79750806  0.09554728  0.74038536     0.08570
H1551       H  0.81479202  0.08621181  0.70263750     0.08570
H1552       H  0.83513498  0.11161110  0.72908396     0.05350
C1553       C  0.98796548  0.22852508  0.73808764    -0.20450
C1554       C  0.01682236  0.24415363  0.73278095    -0.07020
C1555       C  0.04442125  0.22849115  0.74343973     0.13850
C1556       C  0.04276925  0.19674398  0.75392504    -0.20510
C1557       C  0.01393347  0.18080216  0.75847818    -0.07030
C1558       C  0.98602173  0.19847788  0.75301090     0.13840
C1559       C  0.95410841  0.18705396  0.76411119    -0.23860
H1560       H  0.96650381  0.24072371  0.73191469     0.15120
H1561       H  0.06446974  0.18462783  0.75942249     0.15150
C1562       C  0.07598517  0.24434180  0.74556847    -0.23810
H1563       H  0.93599301  0.20558508  0.76118548     0.05360
H1564       H  0.95512903  0.18085222  0.78962003     0.08590
H1565       H  0.94602395  0.16642631  0.75070900     0.08590
H1566       H  0.08513245  0.24142135  0.76989983     0.08570
H1567       H  0.07477754  0.26980478  0.74035593     0.08570
H1568       H  0.09290494  0.23313748  0.72931536     0.05350
C1569       C  0.21529166  0.05807451  0.73748038    -0.20450
C1570       C  0.22951577  0.03100129  0.72519709    -0.07020
C1571       C  0.21105276  0.00312870  0.72399311     0.13850
C1572       C  0.17892111  0.00386777  0.73271492    -0.20510
C1573       C  0.16405248  0.03153325  0.74327307    -0.07030
C1574       C  0.18321124  0.05887597  0.74632179     0.13840
C1575       C  0.17027947  0.08942616  0.75822593    -0.23860
H1576       H  0.22925360  0.07906993  0.74034165     0.15120
H1577       H  0.16514233  0.98243832  0.73071959     0.15150
C1578       C  0.22492915  0.97213822  0.71412555    -0.23810
H1579       H  0.18866495  0.10808562  0.75942331     0.05360
H1580       H  0.16067614  0.08580488  0.78239586     0.08590
H1581       H  0.15165122  0.09818934  0.74212478     0.08590
H1582       H  0.24465852  0.96541703  0.72957108     0.08570
H1583       H  0.23388670  0.97350309  0.68972988     0.08570
H1584       H  0.20728791  0.95273575  0.71529963     0.05350
C1585       C  0.01225857  0.88710804  0.74476307    -0.20450
C1586       C  0.04016233  0.90209035  0.75417792    -0.07020
C1587       C  0.06729105  0.88330704  0.75850746     0.13850
C1588       C  0.06579629  0.85052980  0.75278562    -0.20510
C1589       C  0.03827956  0.83592423  0.74138215    -0.07030
C1590       C  0.01082429  0.85459816  0.73872788     0.13840
C1591       C  0.97908223  0.84099471  0.73106527    -0.23860
H1592       H  0.99123631  0.90108306  0.74145717     0.15120
H1593       H  0.08657195  0.83632486  0.75645006     0.15150
C1594       C  0.09779226  0.89758539  0.76941667    -0.23810
H1595       H  0.96132545  0.84973143  0.74802052     0.05360
H1596       H  0.97850140  0.81513785  0.73353392     0.08590
H1597       H  0.97219030  0.84826486  0.70680791     0.08590
H1598       H  0.09402754  0.90978127  0.79205736     0.08570
H1599       H  0.10690451  0.91465536  0.75145982     0.08570
H1600       H  0.11609372  0.87938370  0.77319501     0.05350
C1601       C  0.19954013  0.99826955  0.21885511    -0.20450
C1602       C  0.21552470  0.02715802  0.22199334    -0.07020
C1603       C  0.20037912  0.05456060  0.20986620     0.13850
C1604       C  0.16853170  0.05306153  0.20063298    -0.20510
C1605       C  0.15140895  0.02455960  0.20062827    -0.07030
C1606       C  0.16820691  0.99640809  0.20780700     0.13840
C1607       C  0.15288005  0.96434713  0.20659033    -0.23860
H1608       H  0.21109842  0.97699656  0.22687694     0.15120
H1609       H  0.15668417  0.07472677  0.19409585     0.15150
C1610       C  0.21667033  0.08595579  0.20622006    -0.23810
H1611       H  0.16959975  0.94523795  0.21273183     0.05360
H1612       H  0.14427103  0.96006950  0.18235707     0.08590
H1613       H  0.13310188  0.96271942  0.22364575     0.08590
H1614       H  0.24159398  0.08506035  0.21326683     0.08570
H1615       H  0.20445718  0.10373465  0.22064198     0.08570
H1616       H  0.21586411  0.09375753  0.18111541     0.05350
C1617       C  0.03665519  0.86286472  0.23659983    -0.20450
C1618       C  0.00792844  0.87387719  0.22441341    -0.07020
C1619       C  0.98168346  0.85283991  0.22540643     0.13850
C1620       C  0.98504945  0.82210870  0.23823062    -0.20510
C1621       C  0.01378799  0.81122572  0.25034417    -0.07030
C1622       C  0.03990112  0.83223314  0.24960669     0.13840
C1623       C  0.07183762  0.82226287  0.26097844    -0.23860
H1624       H  0.05680955  0.87862110  0.23663871     0.15120
H1625       H  0.96513655  0.80603291  0.23822746     0.15150
C1626       C  0.95004577  0.86200770  0.21240895    -0.23810
H1627       H  0.08888637  0.84220913  0.26072293     0.05360
H1628       H  0.08151059  0.80393412  0.24555103     0.08590
H1629       H  0.07011258  0.81311309  0.28545118     0.08590
H1630       H  0.95267429  0.87057902  0.18765536     0.08570
H1631       H  0.93935435  0.88052796  0.22705184     0.08570
H1632       H  0.93335448  0.84175473  0.21249617     0.05350
C1633       C  0.82354489  0.02860809  0.25055227    -0.20450
C1634       C  0.80653790  0.00011662  0.25002490    -0.07020
C1635       C  0.82279232  0.97271272  0.24067825     0.13850
C1636       C  0.85460292  0.97479661  0.23131090    -0.20510
C1637       C  0.87161628  0.00334518  0.23160124    -0.07030
C1638       C  0.85543056  0.03076489  0.24131762     0.13840
C1639       C  0.87148966  0.06242347  0.24309936    -0.23860
H1640       H  0.81187314  0.04959939  0.25835481     0.15120
H1641       H  0.86661895  0.95348870  0.22461333     0.15150
C1642       C  0.80771636  0.94064130  0.24213351    -0.23810
H1643       H  0.85540539  0.08092770  0.25170748     0.05360
H1644       H  0.87979364  0.06998557  0.21930982     0.08590
H1645       H  0.89153490  0.06098512  0.25968913     0.08590
H1646       H  0.78595845  0.94027479  0.22799899     0.08570
H1647       H  0.80279011  0.93426642  0.26709322     0.08570
H1648       H  0.82341247  0.92219625  0.23274059     0.05350
C1649       C  0.02003407  0.16169763  0.24860267    -0.20450
C1650       C  0.01424873  0.15211714  0.21782966    -0.07020
C1651       C  0.00076660  0.17383849  0.19681413     0.13850
C1652       C  0.99659941  0.20520015  0.20639559    -0.20510
C1653       C  0.00767904  0.21698625  0.23556060    -0.07030
C1654       C  0.01618804  0.19301961  0.25826307     0.13840
C1655       C  0.01805608  0.19780823  0.29340513    -0.23860
H1656       H  0.02602671  0.14367900  0.26586821     0.15120
H1657       H  0.98255174  0.21939581  0.19131652     0.15150
C1658       C  0.99060085  0.16409608  0.16441407    -0.23810
H1659       H  0.01988625  0.17516726  0.30664884     0.05360
H1660       H  0.99604627  0.20828291  0.30219084     0.08590
H1661       H  0.03907296  0.21161722  0.29977707     0.08590
H1662       H  0.97177677  0.14593271  0.16632642     0.08570
H1663       H  0.01097456  0.15434879  0.15147043     0.08570
H1664       H  0.98135129  0.18432597  0.15040605     0.05350
C1665       C  0.03502270  0.29394736  0.63230206    -0.20450
C1666       C  0.00598943  0.30418062  0.62021849    -0.07020
C1667       C  0.98030707  0.30553725  0.64178335     0.13850
C1668       C  0.98452605  0.29672084  0.67388657    -0.20510
C1669       C  0.01347922  0.28583366  0.68579492    -0.07030
C1670       C  0.03892794  0.28390536  0.66404600     0.13840
C1671       C  0.07019530  0.27016609  0.67307457    -0.23860
H1672       H  0.05478738  0.29223246  0.61626077     0.15120
H1673       H  0.96475586  0.29804715  0.68999066     0.15150
C1674       C  0.94827593  0.31658804  0.63156145    -0.23810
H1675       H  0.08634924  0.26858881  0.65255402     0.05360
H1676       H  0.06654814  0.24602623  0.68256251     0.08590
H1677       H  0.08262123  0.28474013  0.69025376     0.08590
H1678       H  0.93755357  0.29942939  0.61526684     0.08570
H1679       H  0.95028773  0.34010231  0.61982788     0.08570
H1680       H  0.93196343  0.31877163  0.65190705     0.05350
C1681       C  0.85450459  0.27624115  0.45950522    -0.20450
C1682       C  0.86864111  0.28835615  0.48694079    -0.07020
C1683       C  0.84930941  0.29134745  0.51417116     0.13850
C1684       C  0.81828252  0.27963578  0.51396916    -0.20510
C1685       C  0.80427582  0.26721002  0.48692299    -0.07030
C1686       C  0.82269797  0.26598731  0.45908418     0.13840
C1687       C  0.80900662  0.25370845  0.42893880    -0.23860
H1688       H  0.86865125  0.27379568  0.43841106     0.15120
H1689       H  0.80483057  0.27966945  0.53552767     0.15150
C1690       C  0.86080480  0.30640353  0.54402554    -0.23810
H1691       H  0.82617084  0.25539220  0.40917871     0.05360
H1692       H  0.78798253  0.26754541  0.42220115     0.08590
H1693       H  0.80216515  0.22858944  0.43197338     0.08590
H1694       H  0.87110307  0.32996341  0.53844334     0.08570
H1695       H  0.87840243  0.29122575  0.55594504     0.08570
H1696       H  0.84135616  0.30984473  0.56115823     0.05350
C1697       C  0.20159857  0.29414938  0.44607042    -0.20450
C1698       C  0.21318360  0.27972202  0.47378988    -0.07020
C1699       C  0.19276706  0.27732182  0.50019385     0.13850
C1700       C  0.16151513  0.28841538  0.49791582    -0.20510
C1701       C  0.14925023  0.30102551  0.46957859    -0.07030
C1702       C  0.16999683  0.30418987  0.44341005     0.13840
C1703       C  0.15915190  0.31862119  0.41268265    -0.23860
H1704       H  0.21723735  0.29691236  0.42602115     0.15120
H1705       H  0.14594399  0.28552018  0.51803948     0.15150
C1706       C  0.20364762  0.26265222  0.53082731    -0.23810
H1707       H  0.17882175  0.32133868  0.39552964     0.05360
H1708       H  0.14928776  0.34233377  0.41690291     0.08590
H1709       H  0.14103023  0.30346610  0.40172918     0.08590
H1710       H  0.22503766  0.27447689  0.53952155     0.08570
H1711       H  0.20912278  0.23751341  0.52735632     0.08570
H1712       H  0.18553016  0.26426456  0.54959816     0.05350
C1713       C  0.98502302  0.26738832  0.29366198    -0.20450
C1714       C  0.01224003  0.26406609  0.27544751    -0.07020
C1715       C  0.04169832  0.27108611  0.28936068     0.13850
C1716       C  0.04294004  0.28094410  0.32103710    -0.20510
C1717       C  0.01556272  0.28397625  0.33959439    -0.07030
C1718       C  0.98606184  0.27739176  0.32510483     0.13840
C1719       C  0.95524765  0.27934597  0.34258403    -0.23860
H1720       H  0.96267775  0.26077311  0.28346913     0.15120
H1721       H  0.06564729  0.28503687  0.33178008     0.15150
C1722       C  0.07203410  0.26500351  0.27205603    -0.23810
H1723       H  0.93496087  0.27249663  0.32769589     0.05360
H1724       H  0.95134805  0.30400269  0.34975778     0.08590
H1725       H  0.95529200  0.26322546  0.36346817     0.08590
H1726       H  0.07380515  0.27976622  0.25051592     0.08570
H1727       H  0.07321437  0.23993298  0.26518766     0.08570
H1728       H  0.09286080  0.27021329  0.28685174     0.05350
C1729       C  0.04625998  0.10807670  0.37120316    -0.20450
C1730       C  0.05601924  0.11660082  0.34052881    -0.07020
C1731       C  0.06968713  0.14676182  0.33557395     0.13850
C1732       C  0.06560550  0.16973590  0.35890454    -0.20510
C1733       C  0.04997168  0.16238065  0.38749421    -0.07030
C1734       C  0.04322014  0.13039936  0.39476124     0.13840
C1735       C  0.03233198  0.11935979  0.42697769    -0.23860
H1736       H  0.03877888  0.08403658  0.37625731     0.15120
H1737       H  0.07332615  0.19374190  0.35414690     0.15150
C1738       C  0.08845731  0.15490792  0.30635808    -0.23810
H1739       H  0.03272490  0.09325822  0.42936554     0.05360
H1740       H  0.00780028  0.12671480  0.43099929     0.08590
H1741       H  0.04798491  0.12906968  0.44538617     0.08590
H1742       H  0.07398025  0.15300707  0.28495935     0.08570
H1743       H  0.10863168  0.13857562  0.30453638     0.08570
H1744       H  0.09792545  0.17934551  0.30702805     0.05350
C1745       C  0.96309070  0.21135917  0.63800581    -0.20450
C1746       C  0.99264196  0.21658695  0.62383482    -0.07020
C1747       C  0.02028870  0.20879072  0.64096716     0.13850
C1748       C  0.01713933  0.19456514  0.67044678    -0.20510
C1749       C  0.98839887  0.18082836  0.67904306    -0.07030
C1750       C  0.96065649  0.19293950  0.66568504     0.13840
C1751       C  0.92902425  0.18637980  0.68017854    -0.23860
H1752       H  0.94191598  0.21908410  0.62612009     0.15120
H1753       H  0.03817975  0.18721271  0.68288786     0.15150
C1754       C  0.05317414  0.21121159  0.62750637    -0.23810
H1755       H  0.90968917  0.19586096  0.66535148     0.05360
H1756       H  0.92771182  0.19770239  0.70346734     0.08590
H1757       H  0.92534868  0.16085795  0.68347333     0.08590
H1758       H  0.05758032  0.23522032  0.61804970     0.08570
H1759       H  0.05630762  0.19363395  0.60870519     0.08570
H1760       H  0.07152571  0.20592501  0.64534021     0.05350
C1761       C  0.28240064  0.06453688  0.63261650    -0.20450
C1762       C  0.28963539  0.03704473  0.61581590    -0.07020
C1763       C  0.29160147  0.00832048  0.63360561     0.13850
C1764       C  0.28428342  0.00781726  0.66621527    -0.20510
C1765       C  0.27411906  0.03475828  0.68207673    -0.07030
C1766       C  0.27481837  0.06384429  0.66505718     0.13840
C1767       C  0.26766929  0.09486074  0.67996221    -0.23860
H1768       H  0.28148786  0.08701972  0.62017437     0.15120
H1769       H  0.28559424  0.98578889  0.67924120     0.15150
C1770       C  0.30043722  0.97765573  0.61871260    -0.23810
H1771       H  0.28747166  0.11156687  0.67548917     0.05360
H1772       H  0.26481562  0.09280540  0.70566797     0.08590
H1773       H  0.24588747  0.10482310  0.66959922     0.08590
H1774       H  0.32378934  0.98010330  0.60712928     0.08570
H1775       H  0.28232007  0.97074260  0.60133021     0.08570
H1776       H  0.30202555  0.95814303  0.63640667     0.05350
C1777       C  0.26600831  0.18454235  0.45082445    -0.20450
C1778       C  0.27898032  0.17138176  0.47865227    -0.07020
C1779       C  0.28065257  0.19098384  0.50553659     0.13850
C1780       C  0.26876997  0.22190384  0.50394794    -0.20510
C1781       C  0.25504067  0.23454016  0.47646883    -0.07030
C1782       C  0.25310884  0.21521359  0.44973788     0.13840
C1783       C  0.23650295  0.22633006  0.42029248    -0.23860
H1784       H  0.26459006  0.17021210  0.43002063     0.15120
H1785       H  0.27045210  0.23667223  0.52446076     0.15150
C1786       C  0.29561220  0.18021019  0.53601066    -0.23810
H1787       H  0.23863913  0.20907264  0.40106437     0.05360
H1788       H  0.24613203  0.24879370  0.41113836     0.08590
H1789       H  0.21126610  0.23000026  0.42559705     0.08590
H1790       H  0.31961404  0.17125550  0.53131514     0.08570
H1791       H  0.28098082  0.16163414  0.54764945     0.08570
H1792       H  0.29787978  0.19974966  0.55297480     0.05350
C1793       C  0.25490127  0.84148347  0.44907676    -0.20450
C1794       C  0.26653951  0.82362815  0.47442549    -0.07020
C1795       C  0.28380952  0.83952979  0.49794367     0.13850
C1796       C  0.29044812  0.87224423  0.49436371    -0.20510
C1797       C  0.28110809  0.88974735  0.46737284    -0.07030
C1798       C  0.26334624  0.87332804  0.44407096     0.13840
C1799       C  0.25472414  0.88767313  0.41245534    -0.23860
H1800       H  0.24118207  0.82960059  0.43136629     0.15120
H1801       H  0.30315553  0.88413983  0.51283373     0.15150
C1802       C  0.29451497  0.82228621  0.52726244    -0.23810
H1803       H  0.24331766  0.87034001  0.39674929     0.05360
H1804       H  0.27624285  0.89636593  0.40011640     0.08590
H1805       H  0.23783228  0.90697072  0.41531583     0.08590
H1806       H  0.31083169  0.80307568  0.52120028     0.08570
H1807       H  0.27386800  0.81210461  0.53993318     0.08570
H1808       H  0.30698476  0.83825239  0.54358691     0.05350
C1809       C  0.25807828  0.04684919  0.32320876    -0.20450
C1810       C  0.27687101  0.02199345  0.33444997    -0.07020
C1811       C  0.28398088  0.99749268  0.31343561     0.13850
C1812       C  0.27330709  0.99923092  0.28189524    -0.20510
C1813       C  0.25594566  0.02505337  0.26991509    -0.07030
C1814       C  0.24697036  0.04843464  0.29182493     0.13840
C1815       C  0.22522477  0.07498186  0.28321399    -0.23860
H1816       H  0.25097601  0.06478418  0.33962688     0.15120
H1817       H  0.27865670  0.98007004  0.26630228     0.15150
C1818       C  0.30347731  0.96975786  0.32386199    -0.23810
H1819       H  0.21893030  0.08917995  0.30403820     0.05360
H1820       H  0.20292840  0.06559602  0.27362499     0.08590
H1821       H  0.23670538  0.09127017  0.26617816     0.08590
H1822       H  0.29086845  0.95584014  0.34237957     0.08570
H1823       H  0.32631852  0.97820618  0.33323614     0.08570
H1824       H  0.30846406  0.95376507  0.30402028     0.05350
C1825       C  0.15666303  0.19510578  0.45420439    -0.20450
C1826       C  0.14286856  0.20380552  0.48246554    -0.07020
C1827       C  0.15848471  0.19731673  0.51145014     0.13850
C1828       C  0.18521269  0.17845814  0.51141062    -0.20510
C1829       C  0.19489706  0.16438622  0.48365907    -0.07030
C1830       C  0.18229324  0.17508072  0.45419745     0.13840
C1831       C  0.19133181  0.16198895  0.42251361    -0.23860
H1832       H  0.14533954  0.20094759  0.43199618     0.15120
H1833       H  0.19541600  0.17098498  0.53368154     0.15150
C1834       C  0.14610693  0.20773852  0.54289405    -0.23810
H1835       H  0.19214543  0.18095448  0.40425317     0.05360
H1836       H  0.17305380  0.14489253  0.41513494     0.08590
H1837       H  0.21456691  0.15042257  0.42281512     0.08590
H1838       H  0.12547105  0.19310421  0.54995907     0.08570
H1839       H  0.13961833  0.23294607  0.54153474     0.08570
H1840       H  0.16395358  0.20497492  0.56178428     0.05350
C1841       C  0.17938735  0.01071284  0.34170028    -0.20450
C1842       C  0.16770774  0.01798689  0.37152050    -0.07020
C1843       C  0.14041491  0.03700403  0.37396260     0.13850
C1844       C  0.12894814  0.05163465  0.34677703    -0.20510
C1845       C  0.13799594  0.04074900  0.31735363    -0.07030
C1846       C  0.16352647  0.02017896  0.31487019     0.13840
C1847       C  0.17118560  0.00398926  0.28498041    -0.23860
H1848       H  0.19963980  0.99557213  0.33909514     0.15120
H1849       H  0.10786603  0.06583547  0.34853142     0.15150
C1850       C  0.11970215  0.03956929  0.40277165    -0.23810
H1851       H  0.19677921  0.00539326  0.28088307     0.05360
H1852       H  0.15873589  0.01529120  0.26505757     0.08590
H1853       H  0.16420077  0.97877373  0.28681027     0.08590
H1854       H  0.11780254  0.06461655  0.40936359     0.08570
H1855       H  0.12668535  0.02501260  0.42327836     0.08570
H1856       H  0.09565791  0.03125875  0.39674543     0.05350
C1857       C  0.15298228  0.02035510  0.63707392    -0.20450
C1858       C  0.12457822  0.03223134  0.62581569    -0.07020
C1859       C  0.12370827  0.04849361  0.59639911     0.13850
C1860       C  0.15196612  0.05570480  0.58094458    -0.20510
C1861       C  0.18051108  0.04459478  0.59281884    -0.07030
C1862       C  0.18085980  0.02590367  0.62052872     0.13840
C1863       C  0.21084376  0.01344843  0.63381478    -0.23860
H1864       H  0.15367083  0.00812790  0.65972837     0.15120
H1865       H  0.15149094  0.06851246  0.55861359     0.15150
C1866       C  0.09348611  0.05753483  0.58021748    -0.23810
H1867       H  0.20656075  0.00100290  0.65643067     0.05360
H1868       H  0.22656015  0.03362960  0.63807810     0.08590
H1869       H  0.22202333  0.99673895  0.61746979     0.08590
H1870       H  0.09166764  0.08359043  0.57865530     0.08570
H1871       H  0.07238106  0.04773286  0.59238196     0.08570
H1872       H  0.09336731  0.04798245  0.55599323     0.05350
C1873       C  0.72713526  0.17572150  0.48028112    -0.20450
C1874       C  0.75137838  0.15524311  0.48926811    -0.07020
C1875       C  0.78223401  0.16760542  0.48838918     0.13850
C1876       C  0.78708750  0.20013700  0.49024799    -0.20510
C1877       C  0.76258068  0.22162546  0.48479453    -0.07030
C1878       C  0.73364543  0.20812435  0.47418403     0.13840
C1879       C  0.71252084  0.22477329  0.45115948    -0.23860
H1880       H  0.70410110  0.16604975  0.47514992     0.15120
H1881       H  0.81097632  0.20841205  0.49311061     0.15150
C1882       C  0.80860633  0.14890214  0.47473050    -0.23810
H1883       H  0.71102977  0.21087691  0.42925559     0.05360
H1884       H  0.72200883  0.24823915  0.44407195     0.08590
H1885       H  0.68846038  0.22657177  0.46104446     0.08590
H1886       H  0.81017116  0.15433395  0.44906862     0.08570
H1887       H  0.80440513  0.12340295  0.47742820     0.08570
H1888       H  0.83148429  0.15548175  0.48507060     0.05350
C1889       C  0.76540255  0.02776196  0.30917818    -0.20450
C1890       C  0.76222921  0.99968412  0.29254615    -0.07020
C1891       C  0.74944264  0.97290965  0.30883246     0.13850
C1892       C  0.74160983  0.97482110  0.34106024    -0.20510
C1893       C  0.74556425  0.00278088  0.35785444    -0.07030
C1894       C  0.75712151  0.02989276  0.34119764     0.13840
C1895       C  0.76228660  0.06110201  0.35691852    -0.23860
H1896       H  0.77481575  0.04837920  0.29707368     0.15120
H1897       H  0.73310989  0.95386598  0.35344934     0.15150
C1898       C  0.74426257  0.94156470  0.29376386    -0.23810
H1899       H  0.73957241  0.07006223  0.36583384     0.05360
H1900       H  0.77931845  0.05850109  0.37647549     0.08590
H1901       H  0.77196243  0.07926138  0.34032185     0.08590
H1902       H  0.75004400  0.94204291  0.26849049     0.08570
H1903       H  0.71917862  0.93449280  0.29628054     0.08570
H1904       H  0.75900313  0.92348273  0.30566302     0.05350
C1905       C  0.76944511  0.00156332  0.64945801    -0.20450
C1906       C  0.75178270  0.02675854  0.63665938    -0.07020
C1907       C  0.74700692  0.05344294  0.65581464     0.13850
C1908       C  0.75966423  0.05404125  0.68648962    -0.20510
C1909       C  0.77708004  0.02882126  0.69924205    -0.07030
C1910       C  0.78255597  0.00247586  0.68007042     0.13840
C1911       C  0.80246394  0.97531719  0.69158876    -0.23860
H1912       H  0.77398911  0.98130024  0.63499268     0.15120
H1913       H  0.75533876  0.07425717  0.70109591     0.15150
C1914       C  0.72776657  0.08115661  0.64473543    -0.23810
H1915       H  0.80383905  0.95632500  0.67398650     0.05360
H1916       H  0.79336706  0.96443716  0.71352772     0.08590
H1917       H  0.82650884  0.98385687  0.69660902     0.08590
H1918       H  0.70432374  0.07289140  0.63676251     0.08570
H1919       H  0.74005363  0.09396365  0.62524107     0.08570
H1920       H  0.72396208  0.09830123  0.66385682     0.05350
C1921       C  0.76589261  0.82581809  0.46925669    -0.20450
C1922       C  0.77261254  0.81219990  0.49882521    -0.07020
C1923       C  0.76699853  0.83049316  0.52591807     0.13850
C1924       C  0.75448980  0.86109736  0.52261497    -0.20510
C1925       C  0.74722222  0.87459530  0.49296240    -0.07030
C1926       C  0.75270727  0.85606289  0.46584088     0.13840
C1927       C  0.74459262  0.86740420  0.43298778    -0.23860
H1928       H  0.77128587  0.81258802  0.44845597     0.15120
H1929       H  0.75127228  0.87496948  0.54357371     0.15150
C1930       C  0.77435699  0.81846909  0.55853310    -0.23810
H1931       H  0.74716042  0.84842552  0.41546079     0.05360
H1932       H  0.76056610  0.88689826  0.42543803     0.08590
H1933       H  0.71976083  0.87528430  0.43229625     0.08590
H1934       H  0.79959854  0.81246062  0.56005908     0.08570
H1935       H  0.75935977  0.79780047  0.56438585     0.08570
H1936       H  0.76967521  0.83640301  0.57669428     0.05350
C1937       C  0.84987335  0.15898801  0.54373197    -0.20450
C1938       C  0.86120401  0.12872534  0.53778137    -0.07020
C1939       C  0.89374595  0.12296865  0.53803363     0.13850
C1940       C  0.91417500  0.14863774  0.53741889    -0.20510
C1941       C  0.90240790  0.17935049  0.53601293    -0.07030
C1942       C  0.87041149  0.18483394  0.54213730     0.13840
C1943       C  0.85765719  0.21758125  0.54358706    -0.23860
H1944       H  0.82475583  0.16281457  0.54547490     0.15120
H1945       H  0.93923369  0.14476751  0.53481176     0.15150
C1946       C  0.90691855  0.09007204  0.53785722    -0.23810
H1947       H  0.83190068  0.21759724  0.54801751     0.05360
H1948       H  0.86237705  0.22966633  0.52071667     0.08590
H1949       H  0.86928330  0.23057478  0.56286635     0.08590
H1950       H  0.90139605  0.07839487  0.51538281     0.08570
H1951       H  0.89683412  0.07607453  0.55786446     0.08570
H1952       H  0.93290729  0.09025151  0.54038935     0.05350
C1953       C  0.87733867  0.96807706  0.33519570    -0.20450
C1954       C  0.90925316  0.96991805  0.34254407    -0.07020
C1955       C  0.91885161  0.97168449  0.37426185     0.13850
C1956       C  0.89636399  0.97680940  0.39737050    -0.20510
C1957       C  0.86446294  0.97805476  0.38994946    -0.07030
C1958       C  0.85458889  0.97205773  0.35869108     0.13840
C1959       C  0.82085641  0.97260013  0.34842533    -0.23860
H1960       H  0.87016274  0.96668362  0.31072047     0.15120
H1961       H  0.90402173  0.98098411  0.42112427     0.15150
C1962       C  0.95276162  0.96959367  0.38427628    -0.23810
H1963       H  0.80445903  0.97785745  0.36776043     0.05360
H1964       H  0.81798537  0.99105209  0.32984915     0.08590
H1965       H  0.81426633  0.94940882  0.33856684     0.08590
H1966       H  0.96039696  0.99224146  0.39460633     0.08570
H1967       H  0.96863525  0.96385016  0.36449791     0.08570
H1968       H  0.95523650  0.95055674  0.40236959     0.05350
C1969       C  0.86948778  0.03389296  0.67449002    -0.20450
C1970       C  0.88223431  0.06436712  0.67634056    -0.07020
C1971       C  0.87079539  0.08830859  0.65622410     0.13850
C1972       C  0.84897290  0.08036467  0.63294271    -0.20510
C1973       C  0.84227385  0.04853132  0.62681627    -0.07030
C1974       C  0.85408663  0.02481223  0.64726156     0.13840
C1975       C  0.85511584  0.99035202  0.63876568    -0.23860
H1976       H  0.87831028  0.01567989  0.69034972     0.15120
H1977       H  0.84042246  0.09861492  0.61703557     0.15150
C1978       C  0.88366509  0.12119686  0.65723156    -0.23810
H1979       H  0.86482850  0.97537139  0.65805554     0.05360
H1980       H  0.87094556  0.98735231  0.61819345     0.08590
H1981       H  0.83141135  0.98138766  0.63289497     0.08590
H1982       H  0.90922812  0.12080091  0.65187852     0.08570
H1983       H  0.87946672  0.13080535  0.68103701     0.08570
H1984       H  0.87227556  0.13700227  0.63959738     0.05350
C1985       C  0.21320685  0.77535924  0.50616962    -0.20450
C1986       C  0.22823979  0.77570841  0.47658530    -0.07020
C1987       C  0.21132021  0.76338903  0.45066075     0.13850
C1988       C  0.18019917  0.75215897  0.45480298    -0.20510
C1989       C  0.16397529  0.75458924  0.48369195    -0.07030
C1990       C  0.18153121  0.76533250  0.51011231     0.13840
C1991       C  0.16692462  0.76811704  0.54233054    -0.23860
H1992       H  0.22609868  0.78400258  0.52625208     0.15120
H1993       H  0.16759807  0.74401417  0.43428262     0.15150
C1994       C  0.22381776  0.76476755  0.41747626    -0.23810
H1995       H  0.18403620  0.77683812  0.55993946     0.05360
H1996       H  0.15844101  0.74463495  0.55067983     0.08590
H1997       H  0.14717582  0.78505259  0.54146873     0.08590
H1998       H  0.22608436  0.74052615  0.40836776     0.08570
H1999       H  0.24671155  0.77706907  0.41570365     0.08570
H2000       H  0.20723437  0.77807750  0.40219257     0.05350
C2001       C  0.04585797  0.74234615  0.33868040    -0.20450
C2002       C  0.01882162  0.74409048  0.35784227    -0.07020
C2003       C  0.99089931  0.75598013  0.34362058     0.13850
C2004       C  0.99198967  0.76857807  0.31252590    -0.20510
C2005       C  0.01901962  0.76682810  0.29355909    -0.07030
C2006       C  0.04609485  0.75245962  0.30685613     0.13840
C2007       C  0.07600747  0.74752907  0.28859450    -0.23860
H2008       H  0.06738735  0.73305921  0.34865683     0.15120
H2009       H  0.97106503  0.77907731  0.30250410     0.15150
C2010       C  0.95959741  0.75543525  0.36047758    -0.23810
H2011       H  0.09542666  0.76123462  0.29934218     0.05360
H2012       H  0.07398262  0.75465065  0.26353993     0.08590
H2013       H  0.08224273  0.72217064  0.28946117     0.08590
H2014       H  0.96013134  0.77040448  0.38156048     0.08570
H2015       H  0.95349512  0.73084003  0.36754852     0.08570
H2016       H  0.94039888  0.76436259  0.34513218     0.05350
C2017       C  0.00570555  0.77656791  0.68975892    -0.20450
C2018       C  0.03359813  0.79263519  0.69808737    -0.07020
C2019       C  0.05683665  0.79708113  0.67427604     0.13850
C2020       C  0.05171013  0.78528237  0.64380289    -0.20510
C2021       C  0.02395202  0.76906406  0.63576587    -0.07030
C2022       C  0.00059475  0.76482686  0.65926823     0.13840
C2023       C  0.97057798  0.74705512  0.65275800    -0.23860
H2024       H  0.98774975  0.77242519  0.70740080     0.15120
H2025       H  0.06949644  0.78952790  0.62580619     0.15150
C2026       C  0.08764957  0.81369208  0.67980711    -0.23810
H2027       H  0.95597881  0.74392184  0.67437064     0.05360
H2028       H  0.97617762  0.72329657  0.64383088     0.08590
H2029       H  0.95626611  0.76007487  0.63512193     0.08590
H2030       H  0.10737308  0.79785037  0.67383497     0.08570
H2031       H  0.09084732  0.82089689  0.70438854     0.08570
H2032       H  0.08921158  0.83501739  0.66443415     0.05350
C2033       C  0.86235417  0.75001621  0.53397992    -0.20450
C2034       C  0.88205541  0.75408195  0.50758742    -0.07020
C2035       C  0.86836119  0.76543699  0.47893350     0.13850
C2036       C  0.83657762  0.77428697  0.47835619    -0.20510
C2037       C  0.81685827  0.77010626  0.50452389    -0.07030
C2038       C  0.82985923  0.75658872  0.53250662     0.13840
C2039       C  0.81059152  0.74855990  0.56132540    -0.23860
H2040       H  0.87234149  0.74133821  0.55591979     0.15120
H2041       H  0.82684004  0.78447378  0.45696407     0.15150
C2042       C  0.88697967  0.77022066  0.44890355    -0.23810
H2043       H  0.81914882  0.76234835  0.58162391     0.05360
H2044       H  0.81304102  0.72310424  0.56715676     0.08590
H2045       H  0.78539331  0.75334258  0.55791184     0.08590
H2046       H  0.89798393  0.74783715  0.44182918     0.08570
H2047       H  0.90487010  0.78882853  0.45200109     0.08570
H2048       H  0.87190997  0.77804661  0.42895935     0.05350
C2049       C  0.92139210  0.90459116  0.50816322    -0.20450
C2050       C  0.91088402  0.87427040  0.51622790    -0.07020
C2051       C  0.87857776  0.86724864  0.51599077     0.13850
C2052       C  0.85764916  0.88983759  0.50416142    -0.20510
C2053       C  0.86864403  0.91922049  0.49278527    -0.07030
C2054       C  0.90105558  0.92688470  0.49547395     0.13840
C2055       C  0.91608579  0.95701743  0.48338820    -0.23860
H2056       H  0.94645953  0.90969534  0.50829736     0.15120
H2057       H  0.83269006  0.88444672  0.50358655     0.15150
C2058       C  0.86657663  0.83562594  0.52691914    -0.23810
H2059       H  0.93436398  0.95144280  0.46559422     0.05360
H2060       H  0.92748369  0.96952155  0.50313853     0.08590
H2061       H  0.89947753  0.97313907  0.47197092     0.08590
H2062       H  0.87256872  0.83171672  0.55212846     0.08570
H2063       H  0.87783111  0.81729531  0.51273047     0.08570
H2064       H  0.84070930  0.83355227  0.52422222     0.05350
C2065       C  0.18127432  0.88780922  0.45736969    -0.20450
C2066       C  0.16906700  0.91692932  0.44888237    -0.07020
C2067       C  0.14074072  0.91933604  0.43196522     0.13850
C2068       C  0.12384636  0.89174766  0.42594847    -0.20510
C2069       C  0.13459814  0.86270116  0.43759841    -0.07030
C2070       C  0.16402130  0.86069080  0.45219765     0.13840
C2071       C  0.17550117  0.83019254  0.46523029    -0.23860
H2072       H  0.20346182  0.88652314  0.46983927     0.15120
H2073       H  0.10057990  0.89323231  0.41564455     0.15150
C2074       C  0.12771697  0.95070192  0.42176911    -0.23810
H2075       H  0.19840052  0.83293363  0.47720193     0.05360
H2076       H  0.17779748  0.81408250  0.44520695     0.08590
H2077       H  0.15855191  0.82057416  0.48288546     0.08590
H2078       H  0.14388677  0.96186575  0.40437433     0.08570
H2079       H  0.12508301  0.96611992  0.44248926     0.08570
H2080       H  0.10436091  0.94823173  0.41039554     0.05350
C2081       C  0.04048369  0.86650299  0.31608347    -0.20450
C2082       C  0.00996384  0.87787214  0.31041350    -0.07020
C2083       C  0.98398878  0.86188032  0.32380081     0.13850
C2084       C  0.98964181  0.83787123  0.34592459    -0.20510
C2085       C  0.02048758  0.83051748  0.35580262    -0.07030
C2086       C  0.04628612  0.84351448  0.33903741     0.13840
C2087       C  0.08004927  0.83538546  0.34625955    -0.23860
H2088       H  0.06041396  0.87771769  0.30435025     0.15120
H2089       H  0.96960099  0.82681701  0.35753328     0.15150
C2090       C  0.95057707  0.87146341  0.31712509    -0.23810
H2091       H  0.09666198  0.84682970  0.32927014     0.05360
H2092       H  0.08339014  0.80952784  0.34478450     0.08590
H2093       H  0.08652225  0.84372330  0.37004625     0.08590
H2094       H  0.94578755  0.86961272  0.29150799     0.08570
H2095       H  0.94668480  0.89602000  0.32479581     0.08570
H2096       H  0.93334565  0.85609939  0.32989249     0.05350
C2097       C  0.04326737  0.87754774  0.62187146    -0.20450
C2098       C  0.01457206  0.87316206  0.60621298    -0.07020
C2099       C  0.98940442  0.89363234  0.61133502     0.13850
C2100       C  0.99436156  0.91962795  0.63025913    -0.20510
C2101       C  0.02407206  0.92603855  0.64345986    -0.07030
C2102       C  0.04851211  0.90391540  0.64045709     0.13840
C2103       C  0.08051819  0.90859941  0.65492745    -0.23860
H2104       H  0.06238028  0.86136033  0.61762213     0.15120
H2105       H  0.97509427  0.93582749  0.63350928     0.15150
C2106       C  0.95822102  0.88964681  0.59496811    -0.23810
H2107       H  0.09708953  0.88972696  0.64828381     0.05360
H2108       H  0.07852454  0.90821715  0.68104227     0.08590
H2109       H  0.09085458  0.93137555  0.64662225     0.08590
H2110       H  0.94747132  0.86665311  0.60193837     0.08570
H2111       H  0.96169446  0.89059675  0.56901513     0.08570
H2112       H  0.94141001  0.90847870  0.60120288     0.05350
C2113       C  0.75111304  0.22073438  0.96851624    -0.20450
C2114       C  0.74834478  0.23547926  0.99763212    -0.07020
C2115       C  0.75461874  0.21720829  0.02518688     0.13850
C2116       C  0.76442558  0.18545646  0.02266200    -0.20510
C2117       C  0.76820339  0.17084592  0.99324813    -0.07030
C2118       C  0.76151755  0.18945170  0.96565426     0.13840
C2119       C  0.76517514  0.17726444  0.93259925    -0.23860
H2120       H  0.74491004  0.23392884  0.94754086     0.15120
H2121       H  0.76863988  0.17180942  0.04401998     0.15150
C2122       C  0.75033590  0.23064139  0.05746051    -0.23810
H2123       H  0.76046285  0.19573688  0.91439024     0.05360
H2124       H  0.74822128  0.15778405  0.92851335     0.08590
H2125       H  0.78966878  0.16922691  0.92883096     0.08590
H2126       H  0.72560557  0.23800244  0.06060854     0.08570
H2127       H  0.76625099  0.25105175  0.06059084     0.08570
H2128       H  0.75569220  0.21308677  0.07635882     0.05350
C2129       C  0.78294321  0.84453622  0.97070075    -0.20450
C2130       C  0.77712968  0.82833949  0.99953668    -0.07020
C2131       C  0.78632935  0.84392037  0.02754018     0.13850
C2132       C  0.80003831  0.87421871  0.02596880    -0.20510
C2133       C  0.80302907  0.89165417  0.99758803    -0.07030
C2134       C  0.79510470  0.87588162  0.96933063     0.13840
C2135       C  0.79864551  0.89196769  0.93760789    -0.23860
H2136       H  0.77772102  0.83264503  0.94894113     0.15120
H2137       H  0.80588702  0.88552828  0.04795547     0.15150
C2138       C  0.77971486  0.83125344  0.06014347    -0.23810
H2139       H  0.79238249  0.87598933  0.91809861     0.05360
H2140       H  0.82343397  0.89965609  0.93407557     0.08590
H2141       H  0.78291108  0.91263324  0.93597162     0.08590
H2142       H  0.80206952  0.82773767  0.07300216     0.08570
H2143       H  0.76615986  0.80934946  0.05996836     0.08570
H2144       H  0.76553128  0.84845632  0.07343337     0.05350
C2145       C  0.78457378  0.01351400  0.84338658    -0.20450
C2146       C  0.78632976  0.04414661  0.85543211    -0.07020
C2147       C  0.78013484  0.06966790  0.83418814     0.13850
C2148       C  0.77213912  0.06362072  0.80240988    -0.20510
C2149       C  0.76933329  0.03281750  0.79080646    -0.07030
C2150       C  0.77630595  0.00750396  0.81195729     0.13840
C2151       C  0.77521100  0.97346931  0.80300475    -0.23860
H2152       H  0.78877559  0.99347876  0.85895713     0.15120
H2153       H  0.76793951  0.08329032  0.78648571     0.15150
C2154       C  0.78201219  0.10344939  0.84442086    -0.23810
H2155       H  0.75597661  0.96115868  0.81613463     0.05360
H2156       H  0.79791596  0.96210713  0.80900154     0.08590
H2157       H  0.77166724  0.97041665  0.77781137     0.08590
H2158       H  0.80537013  0.10822127  0.85500504     0.08570
H2159       H  0.76310556  0.10830845  0.86171970     0.08570
H2160       H  0.77891735  0.12017061  0.82426000     0.05350
C2161       C  0.78160138  0.03617897  0.15415326    -0.20450
C2162       C  0.78020086  0.00871476  0.13600673    -0.07020
C2163       C  0.76943096  0.98046233  0.15162800     0.13850
C2164       C  0.75838204  0.98137772  0.18305722    -0.20510
C2165       C  0.75946267  0.00884451  0.20088638    -0.07030
C2166       C  0.77226222  0.03648451  0.18617628     0.13840
C2167       C  0.77655299  0.06701682  0.20309549    -0.23860
H2168       H  0.78988620  0.05799271  0.14325124     0.15120
H2169       H  0.74906171  0.96007358  0.19400736     0.15150
C2170       C  0.76954175  0.94873769  0.13609109    -0.23810
H2171       H  0.76177930  0.08549158  0.19187912     0.05360
H2172       H  0.80157385  0.07457631  0.20154341     0.08590
H2173       H  0.77036092  0.06503546  0.22827441     0.08590
H2174       H  0.79339005  0.94373188  0.12678642     0.08570
H2175       H  0.75198767  0.94801292  0.11693581     0.08570
H2176       H  0.76329434  0.92934162  0.15293267     0.05350
C2177       C  0.26950520  0.86523197  0.02146694    -0.20450
C2178       C  0.25677107  0.87893047  0.99376721    -0.07020
C2179       C  0.25395045  0.85926374  0.96697195     0.13850
C2180       C  0.26416577  0.82767740  0.96869267    -0.20510
C2181       C  0.27712613  0.81439458  0.99622383    -0.07030
C2182       C  0.27983760  0.83370598  0.02294656     0.13840
C2183       C  0.29378222  0.82144520  0.05322070    -0.23860
H2184       H  0.27229052  0.87953990  0.04218534     0.15120
H2185       H  0.26270324  0.81329374  0.94798763     0.15150
C2186       C  0.24127465  0.87113313  0.93590452    -0.23810
H2187       H  0.29477202  0.83984295  0.07150509     0.05360
H2188       H  0.31817910  0.81347679  0.04896019     0.08590
H2189       H  0.27914371  0.80180008  0.06274928     0.08590
H2190       H  0.25697583  0.88990724  0.92615624     0.08570
H2191       H  0.21707195  0.88016240  0.93917011     0.08570
H2192       H  0.24004481  0.85224303  0.91812929     0.05350
C2193       C  0.23770508  0.21406995  0.95380480    -0.20450
C2194       C  0.25347548  0.22356844  0.98144000    -0.07020
C2195       C  0.25992711  0.19965291  0.00435865     0.13850
C2196       C  0.24955110  0.16845163  0.99962774    -0.20510
C2197       C  0.23390936  0.15915296  0.97210628    -0.07030
C2198       C  0.22739700  0.18267587  0.94906030     0.13840
C2199       C  0.21054950  0.17484776  0.91901681    -0.23860
H2200       H  0.23509769  0.23099041  0.93474152     0.15120
H2201       H  0.25532455  0.15058863  0.01715879     0.15150
C2202       C  0.27863148  0.20571623  0.03360555    -0.23810
H2203       H  0.20580704  0.19633124  0.90453371     0.05360
H2204       H  0.18764735  0.16333385  0.92467263     0.08590
H2205       H  0.22505912  0.15893728  0.90456972     0.08590
H2206       H  0.26564529  0.22163373  0.04917488     0.08570
H2207       H  0.30210139  0.21524343  0.02707187     0.08570
H2208       H  0.28274232  0.18380318  0.04763300     0.05350
C2209       C  0.26593951  0.99912309  0.78707470    -0.20450
C2210       C  0.27683628  0.02794818  0.77412234    -0.07020
C2211       C  0.27471747  0.05499897  0.79296000     0.13850
C2212       C  0.26076090  0.05278360  0.82314633    -0.20510
C2213       C  0.25053421  0.02378166  0.83666234    -0.07030
C2214       C  0.25329076  0.99651801  0.81791439     0.13840
C2215       C  0.24267885  0.96452288  0.82976866    -0.23860
H2216       H  0.26776154  0.97819973  0.77318841     0.15120
H2217       H  0.25934664  0.07398646  0.83690000     0.15150
C2218       C  0.28802515  0.08625887  0.78190081    -0.23810
H2219       H  0.24427871  0.94650693  0.81114847     0.05360
H2220       H  0.21778517  0.96552115  0.83764653     0.08590
H2221       H  0.25787313  0.95660299  0.84952095     0.08590
H2222       H  0.27712942  0.09384519  0.75945395     0.08570
H2223       H  0.31378255  0.08420358  0.77856069     0.08570
H2224       H  0.28389774  0.10505855  0.79928115     0.05350
C2225       C  0.24628432  0.98815028  0.13477649    -0.20450
C2226       C  0.24376034  0.01532646  0.11551112    -0.07020
C2227       C  0.25203918  0.04482510  0.12872797     0.13850
C2228       C  0.26374890  0.04591239  0.15966481    -0.20510
C2229       C  0.26591566  0.01891124  0.17890219    -0.07030
C2230       C  0.25667041  0.98954391  0.16622421     0.13840
C2231       C  0.25753619  0.95904874  0.18485291    -0.23860
H2232       H  0.24049966  0.96537301  0.12505929     0.15120
H2233       H  0.27060476  0.06836164  0.16917547     0.15150
C2234       C  0.24925834  0.07554470  0.11063581    -0.23810
H2235       H  0.27537449  0.94326548  0.17448635     0.05360
H2236       H  0.23420122  0.94721092  0.18377714     0.08590
H2237       H  0.26305625  0.96240770  0.21003494     0.08590
H2238       H  0.22448681  0.07916472  0.10341551     0.08570
H2239       H  0.26485732  0.07563902  0.08973154     0.08570
H2240       H  0.25621294  0.09602950  0.12507165     0.05350
C2241       C  0.47503558  0.16900359  0.25136883    -0.20450
C2242       C  0.50408610  0.15413440  0.25706619    -0.07020
C2243       C  0.53160431  0.17334443  0.25465839     0.13850
C2244       C  0.52911267  0.20570853  0.24589711    -0.20510
C2245       C  0.49996024  0.22005178  0.23944639    -0.07030
C2246       C  0.47268896  0.20087310  0.24186975     0.13840
C2247       C  0.44081662  0.21310465  0.23313397    -0.23860
H2248       H  0.45355677  0.15520047  0.25291092     0.15120
H2249       H  0.55026671  0.21994610  0.24379175     0.15150
C2250       C  0.56377585  0.16023417  0.26106628    -0.23810
H2251       H  0.42217427  0.19478612  0.23580133     0.05360
H2252       H  0.44103796  0.22077739  0.20804771     0.08590
H2253       H  0.43442047  0.23261836  0.24864874     0.08590
H2254       H  0.56944125  0.14186417  0.24366714     0.08570
H2255       H  0.56455938  0.15011359  0.28535683     0.08570
H2256       H  0.58232155  0.17873675  0.25919013     0.05350
C2257       C  0.49047205  0.86123926  0.24185163    -0.20450
C2258       C  0.51743610  0.87394161  0.25640966    -0.07020
C2259       C  0.54468019  0.85472435  0.25795559     0.13850
C2260       C  0.54441697  0.82455868  0.24440666    -0.20510
C2261       C  0.51776741  0.81217577  0.22932186    -0.07030
C2262       C  0.49029751  0.83082759  0.22848123     0.13840
C2263       C  0.46061110  0.81863289  0.21363909    -0.23860
H2264       H  0.46964382  0.87566596  0.23979210     0.15120
H2265       H  0.56531489  0.81026148  0.24581905     0.15150
C2266       C  0.57414622  0.86531232  0.27453146    -0.23810
H2267       H  0.44134951  0.83611512  0.21462425     0.05360
H2268       H  0.45249332  0.79677113  0.22586727     0.08590
H2269       H  0.46510438  0.81328720  0.18860594     0.08590
H2270       H  0.56824815  0.87299774  0.29872399     0.08570
H2271       H  0.58578368  0.88483135  0.26115983     0.08570
H2272       H  0.59152321  0.84598465  0.27666658     0.05350
C2273       C  0.32462913  0.99535226  0.22423146    -0.20450
C2274       C  0.30758058  0.02360112  0.22352977    -0.07020
C2275       C  0.32266224  0.05111216  0.23468040     0.13850
C2276       C  0.35347902  0.04947961  0.24669939    -0.20510
C2277       C  0.37043786  0.02111581  0.24804540    -0.07030
C2278       C  0.35525860  0.99346005  0.23686818     0.13840
C2279       C  0.37091550  0.96168524  0.23755226    -0.23860
H2280       H  0.31375731  0.97422224  0.21546772     0.15120
H2281       H  0.36468979  0.07094614  0.25455873     0.15150
C2282       C  0.30699955  0.08271871  0.23305213    -0.23810
H2283       H  0.35542377  0.94294310  0.22807027     0.05360
H2284       H  0.37665301  0.95490869  0.26224206     0.08590
H2285       H  0.39258392  0.96226348  0.22293664     0.08590
H2286       H  0.28559918  0.08229489  0.24775030     0.08570
H2287       H  0.30103588  0.08878185  0.20831248     0.08570
H2288       H  0.32244785  0.10177938  0.24195752     0.05350
C2289       C  0.66576393  0.02850123  0.26377352    -0.20450
C2290       C  0.64985831  0.99927526  0.26330018    -0.07020
C2291       C  0.66771072  0.97240491  0.25454485     0.13850
C2292       C  0.69916909  0.97617278  0.24420614    -0.20510
C2293       C  0.71474076  0.00545845  0.24389288    -0.07030
C2294       C  0.69747994  0.03198986  0.25404824     0.13840
C2295       C  0.71128576  0.06462919  0.25276065    -0.23860
H2296       H  0.65271628  0.04938175  0.26984240     0.15120
H2297       H  0.71160730  0.95584336  0.23579155     0.15150
C2298       C  0.65402204  0.93949738  0.25503923    -0.23810
H2299       H  0.69473078  0.08242313  0.26194090     0.05360
H2300       H  0.71645810  0.07119920  0.22788937     0.08590
H2301       H  0.73277291  0.06583119  0.26724205     0.08590
H2302       H  0.63685040  0.93668702  0.23565190     0.08570
H2303       H  0.64263161  0.93445255  0.27819319     0.08570
H2304       H  0.67244340  0.92144260  0.25159390     0.05350
C2305       C  0.36477026  0.05288685  0.10757374    -0.20450
C2306       C  0.34863461  0.02439861  0.10181851    -0.07020
C2307       C  0.34993755  0.99991044  0.12487700     0.13850
C2308       C  0.36882479  0.00404228  0.15154678    -0.20510
C2309       C  0.38714608  0.03145355  0.15551908    -0.07030
C2310       C  0.38429136  0.05656478  0.13357599     0.13840
C2311       C  0.40296525  0.08672750  0.13603327    -0.23860
H2312       H  0.36334320  0.07240795  0.09088067     0.15120
H2313       H  0.37077096  0.98480221  0.16851727     0.15150
C2314       C  0.33285304  0.96893002  0.12140351    -0.23810
H2315       H  0.39793631  0.10355910  0.11638572     0.05360
H2316       H  0.42853243  0.08164014  0.13522286     0.08590
H2317       H  0.39677009  0.09847974  0.15835906     0.08590
H2318       H  0.34157561  0.95667523  0.10020953     0.08570
H2319       H  0.30725470  0.97300735  0.11935826     0.08570
H2320       H  0.33648229  0.95296746  0.14207998     0.05350
C2321       C  0.68004737  0.98813720  0.13124852    -0.20450
C2322       C  0.67386846  0.97351846  0.10271323    -0.07020
C2323       C  0.64452674  0.95916483  0.09702540     0.13850
C2324       C  0.62080373  0.96189037  0.11965522    -0.20510
C2325       C  0.62598594  0.97999626  0.14644424    -0.07030
C2326       C  0.65577405  0.99304772  0.15250843     0.13840
C2327       C  0.66109221  0.01457395  0.17971039    -0.23860
H2328       H  0.70255286  0.99976704  0.13472681     0.15120
H2329       H  0.59757582  0.95230098  0.11520421     0.15150
C2330       C  0.63787048  0.94294236  0.06638204    -0.23810
H2331       H  0.68617444  0.02164559  0.18194891     0.05360
H2332       H  0.65356557  0.00224179  0.20147248     0.08590
H2333       H  0.64682309  0.03618900  0.17667442     0.08590
H2334       H  0.65463448  0.92329871  0.06332491     0.08570
H2335       H  0.64051006  0.95985880  0.04627099     0.08570
H2336       H  0.61361869  0.93307030  0.06583264     0.05350
C2337       C  0.66144609  0.30392801  0.02588492    -0.20450
C2338       C  0.64228047  0.29833650  0.99956959    -0.07020
C2339       C  0.65644678  0.28452661  0.97272054     0.13850
C2340       C  0.68819039  0.27545181  0.97362185    -0.20510
C2341       C  0.70733585  0.28087817  0.99979178    -0.07030
C2342       C  0.69375113  0.29610922  0.02612807     0.13840
C2343       C  0.71202457  0.30348888  0.05538479    -0.23860
H2344       H  0.65098698  0.31398904  0.04673875     0.15120
H2345       H  0.69822340  0.26385759  0.95344355     0.15150
C2346       C  0.63825001  0.27741458  0.94326261    -0.23810
H2347       H  0.70128787  0.29094296  0.07597513     0.05360
H2348       H  0.71135847  0.32923453  0.05953616     0.08590
H2349       H  0.73688587  0.29641409  0.05371996     0.08590
H2350       H  0.62652931  0.29892319  0.93410426     0.08570
H2351       H  0.62100030  0.25845153  0.94828588     0.08570
H2352       H  0.65373428  0.26882830  0.92413968     0.05350
C2353       C  0.34555738  0.28716067  0.01096214    -0.20450
C2354       C  0.36125783  0.29107263  0.98188335    -0.07020
C2355       C  0.34349110  0.28508633  0.95404291     0.13850
C2356       C  0.31251295  0.27289314  0.95646084    -0.20510
C2357       C  0.29717553  0.26818935  0.98550698    -0.07030
C2358       C  0.31379769  0.27730699  0.01310168     0.13840
C2359       C  0.29910733  0.27796846  0.04536662    -0.23860
H2360       H  0.35800795  0.29235216  0.03253962     0.15120
H2361       H  0.29967568  0.26777396  0.93516629     0.15150
C2362       C  0.35622293  0.29175979  0.92132245    -0.23810
H2363       H  0.31103689  0.26089108  0.06132977     0.05360
H2364       H  0.27375696  0.27262429  0.04487568     0.08590
H2365       H  0.30192967  0.30185199  0.05530352     0.08590
H2366       H  0.37621495  0.27609767  0.91607714     0.08570
H2367       H  0.36372217  0.31681642  0.91920558     0.08570
H2368       H  0.33823694  0.28765088  0.90288423     0.05350
C2369       C  0.48137092  0.30252755  0.79739983    -0.20450
C2370       C  0.50787435  0.28568957  0.78715494    -0.07020
C2371       C  0.53243377  0.28059079  0.80914989     0.13850
C2372       C  0.52921754  0.29093311  0.84046372    -0.20510
C2373       C  0.50197251  0.30617601  0.85112002    -0.07030
C2374       C  0.47798214  0.31261164  0.82879789     0.13840
C2375       C  0.44866293  0.33017290  0.83764026    -0.23860
H2376       H  0.46266443  0.30720883  0.78083473     0.15120
H2377       H  0.54774146  0.28569761  0.85719146     0.15150
C2378       C  0.56240094  0.26452423  0.79999668    -0.23810
H2379       H  0.43391195  0.33556133  0.81669812     0.05360
H2380       H  0.45514695  0.35285399  0.84863644     0.08590
H2381       H  0.43405368  0.31578236  0.85420414     0.08590
H2382       H  0.57316923  0.27682333  0.77928905     0.08570
H2383       H  0.55740508  0.23952481  0.79472116     0.08570
H2384       H  0.57991377  0.26472249  0.81935883     0.05350
C2385       C  0.48120926  0.28866321  0.14697222    -0.20450
C2386       C  0.51026730  0.28516919  0.13145396    -0.07020
C2387       C  0.53530503  0.27135976  0.14925696     0.13850
C2388       C  0.53009568  0.26101810  0.18071351    -0.20510
C2389       C  0.50111647  0.26463307  0.19605189    -0.07030
C2390       C  0.47628420  0.27879093  0.17856001     0.13840
C2391       C  0.44374018  0.28322058  0.19160817    -0.23860
H2392       H  0.46154004  0.29859371  0.13412572     0.15120
H2393       H  0.54913688  0.25008771  0.19363196     0.15150
C2394       C  0.56793205  0.26723079  0.13593476    -0.23810
H2395       H  0.42667436  0.26910576  0.17789206     0.05360
H2396       H  0.43708244  0.30840978  0.18943041     0.08590
H2397       H  0.44181232  0.27605217  0.21662127     0.08590
H2398       H  0.57727402  0.29026060  0.12717749     0.08570
H2399       H  0.56757854  0.24994801  0.11667832     0.08570
H2400       H  0.58461718  0.25812964  0.15394353     0.05350
C2401       C  0.48535469  0.18225153  0.12632447    -0.20450
C2402       C  0.51376019  0.18466943  0.10953597    -0.07020
C2403       C  0.54033966  0.16825603  0.12021942     0.13850
C2404       C  0.53705565  0.14779124  0.14617373    -0.20510
C2405       C  0.50757239  0.14228370  0.16081348    -0.07030
C2406       C  0.48164314  0.16091888  0.15151353     0.13840
C2407       C  0.44966270  0.15783555  0.16661063    -0.23860
H2408       H  0.46530055  0.19584553  0.11836575     0.15120
H2409       H  0.55739436  0.13436456  0.15345068     0.15150
C2410       C  0.57145589  0.17030802  0.10307405    -0.23810
H2411       H  0.43315457  0.17607716  0.15773608     0.05360
H2412       H  0.45156823  0.16033821  0.19240523     0.08590
H2413       H  0.43931051  0.13461300  0.16125532     0.08590
H2414       H  0.58080881  0.19474313  0.10372703     0.08570
H2415       H  0.56841573  0.16323340  0.07817151     0.08570
H2416       H  0.58928968  0.15458163  0.11396999     0.05350
C2417       C  0.37263302  0.13548056  0.92804511    -0.20450
C2418       C  0.34140528  0.14511073  0.92820156    -0.07020
C2419       C  0.33413267  0.17722965  0.92681872     0.13850
C2420       C  0.35807339  0.19922488  0.93200528    -0.20510
C2421       C  0.38847933  0.18878303  0.93863736    -0.07030
C2422       C  0.39640574  0.15694266  0.93399173     0.13840
C2423       C  0.42929425  0.14486665  0.93753414    -0.23860
H2424       H  0.37798256  0.11051056  0.92779659     0.15120
H2425       H  0.35250606  0.22389011  0.93391455     0.15150
C2426       C  0.30100892  0.18762051  0.92304105    -0.23810
H2427       H  0.43168794  0.12048392  0.92875080     0.05360
H2428       H  0.43600965  0.14463581  0.96261987     0.08590
H2429       H  0.44536641  0.16032357  0.92393789     0.08590
H2430       H  0.28777595  0.17785386  0.94330803     0.08570
H2431       H  0.29113601  0.17839104  0.90080391     0.08570
H2432       H  0.29899272  0.21363435  0.92263345     0.05350
C2433       C  0.61813004  0.16097538  0.98169139    -0.20450
C2434       C  0.62222794  0.18714256  0.00088013    -0.07020
C2435       C  0.65170294  0.19220419  0.01538121     0.13850
C2436       C  0.67645005  0.17132765  0.00885201    -0.20510
C2437       C  0.67251570  0.14678692  0.98731519    -0.07030
C2438       C  0.64284999  0.14177311  0.97395332     0.13840
C2439       C  0.63688624  0.11583032  0.95149543    -0.23860
H2440       H  0.59526798  0.15600180  0.97155009     0.15120
H2441       H  0.69861693  0.17378093  0.02106415     0.15150
C2442       C  0.65808386  0.21859331  0.03764072    -0.23810
H2443       H  0.61210120  0.11487491  0.94332397     0.05360
H2444       H  0.64229621  0.09284860  0.96299897     0.08590
H2445       H  0.65210774  0.12058206  0.93068321     0.08590
H2446       H  0.63828032  0.23507388  0.03999866     0.08570
H2447       H  0.67865753  0.23217608  0.02893244     0.08570
H2448       H  0.66371552  0.20870527  0.06133222     0.05350
C2449       C  0.68193673  0.00763480  0.71638238    -0.20450
C2450       C  0.66455877  0.03510896  0.72049856    -0.07020
C2451       C  0.67925822  0.06048896  0.73636175     0.13850
C2452       C  0.71007436  0.05701771  0.74845214    -0.20510
C2453       C  0.72718069  0.02893893  0.74530708    -0.07030
C2454       C  0.71236593  0.00399916  0.72852908     0.13840
C2455       C  0.72628980  0.97204652  0.72446041    -0.23860
H2456       H  0.67094563  0.98784599  0.70474420     0.15120
H2457       H  0.72100151  0.07671040  0.76008586     0.15150
C2458       C  0.66250818  0.09110650  0.74153889    -0.23810
H2459       H  0.71103142  0.95393350  0.73610140     0.05360
H2460       H  0.74940293  0.97041523  0.73495110     0.08590
H2461       H  0.72826797  0.96670517  0.69899938     0.08590
H2462       H  0.64115612  0.08695963  0.75608347     0.08570
H2463       H  0.65600786  0.10188660  0.71847712     0.08570
H2464       H  0.67752114  0.10832428  0.75408320     0.05350
C2465       C  0.33374457  0.06116223  0.72069999    -0.20450
C2466       C  0.32118519  0.03207315  0.73095956    -0.07020
C2467       C  0.34055129  0.00521542  0.72919108     0.13850
C2468       C  0.37195316  0.00835430  0.71837883    -0.20510
C2469       C  0.38526720  0.03787399  0.70997026    -0.07030
C2470       C  0.36519322  0.06459776  0.71050256     0.13840
C2471       C  0.37614914  0.09702135  0.70006090    -0.23860
H2472       H  0.31878575  0.08162460  0.72086509     0.15120
H2473       H  0.38660140  0.98759467  0.71789875     0.15150
C2474       C  0.32837522  0.97315125  0.73906904    -0.23810
H2475       H  0.35643988  0.11403539  0.69898686     0.05360
H2476       H  0.38665559  0.09601673  0.67609855     0.08590
H2477       H  0.39348870  0.10645055  0.71701782     0.08590
H2478       H  0.30724025  0.96687632  0.72528878     0.08570
H2479       H  0.32219309  0.97316777  0.76444002     0.08570
H2480       H  0.34623133  0.95457141  0.73551839     0.05350
C2481       C  0.48436841  0.19259614  0.72861451    -0.20450
C2482       C  0.51331659  0.17760210  0.72298745    -0.07020
C2483       C  0.54118674  0.19604151  0.72629898     0.13850
C2484       C  0.53914737  0.22756796  0.73625460    -0.20510
C2485       C  0.51037026  0.24158816  0.74410338    -0.07030
C2486       C  0.48246819  0.22399057  0.73869349     0.13840
C2487       C  0.45002829  0.23763312  0.74195249    -0.23860
H2488       H  0.46259083  0.17962513  0.72549121     0.15120
H2489       H  0.56042587  0.24154571  0.73782682     0.15150
C2490       C  0.57339197  0.18315771  0.71958514    -0.23810
H2491       H  0.43783185  0.23685866  0.71888473     0.05360
H2492       H  0.45035893  0.26230279  0.74989502     0.08590
H2493       H  0.43596857  0.22324509  0.75897146     0.08590
H2494       H  0.57454627  0.17504349  0.69487255     0.08570
H2495       H  0.57866101  0.16345762  0.73621175     0.08570
H2496       H  0.59212348  0.20124200  0.72248874     0.05350
C2497       C  0.51252425  0.84924901  0.72866091    -0.20450
C2498       C  0.54130482  0.83320966  0.72955451    -0.07020
C2499       C  0.56812056  0.84924249  0.71673853     0.13850
C2500       C  0.56608776  0.88106138  0.70697712    -0.20510
C2501       C  0.53763931  0.89754759  0.70744237    -0.07030
C2502       C  0.51007162  0.88053969  0.71682794     0.13840
C2503       C  0.47783193  0.89491410  0.71457268    -0.23860
H2504       H  0.49156058  0.83685526  0.73676270     0.15120
H2505       H  0.58730159  0.89335809  0.69934859     0.15150
C2506       C  0.59961117  0.83419671  0.71314403    -0.23810
H2507       H  0.45918311  0.87828199  0.72290022     0.05360
H2508       H  0.47278623  0.90118304  0.68960058     0.08590
H2509       H  0.47627293  0.91629042  0.72906682     0.08590
H2510       H  0.59934015  0.80998080  0.72215734     0.08570
H2511       H  0.61759856  0.84758035  0.72643442     0.08570
H2512       H  0.60635891  0.83400691  0.68782976     0.05350
C2513       C  0.46648880  0.17662110  0.81559986    -0.20450
C2514       C  0.47752861  0.14751054  0.82702475    -0.07020
C2515       C  0.48325042  0.14336164  0.85952106     0.13850
C2516       C  0.48541065  0.16978831  0.87802690    -0.20510
C2517       C  0.47746422  0.19946724  0.86622586    -0.07030
C2518       C  0.46512975  0.20263612  0.83563589     0.13840
C2519       C  0.45191431  0.23300878  0.82338629    -0.23860
H2520       H  0.46024155  0.17936625  0.79100375     0.15120
H2521       H  0.49330144  0.16721696  0.90207071     0.15150
C2522       C  0.48655146  0.11129974  0.87500638    -0.23810
H2523       H  0.46625784  0.24095402  0.80309571     0.05360
H2524       H  0.45202957  0.25183404  0.84110614     0.08590
H2525       H  0.42724097  0.22926037  0.81580657     0.08590
H2526       H  0.50854608  0.10001936  0.86767501     0.08570
H2527       H  0.46615985  0.09620055  0.86871700     0.08570
H2528       H  0.48721980  0.11282934  0.90111982     0.05350
C2529       C  0.37691178  0.07495384  0.81359081    -0.20450
C2530       C  0.38769544  0.04568004  0.80318038    -0.07020
C2531       C  0.36985139  0.01804544  0.80993002     0.13850
C2532       C  0.34332163  0.02024469  0.82896938    -0.20510
C2533       C  0.33655522  0.04825562  0.84439438    -0.07030
C2534       C  0.35193529  0.07645401  0.83512036     0.13840
C2535       C  0.34418373  0.10737013  0.84999198    -0.23860
H2536       H  0.39020859  0.09618741  0.80785591     0.15120
H2537       H  0.33062142  0.99889389  0.83572551     0.15150
C2538       C  0.38034989  0.98552159  0.80090806    -0.23810
H2539       H  0.35894594  0.12698006  0.84033470     0.05360
H2540       H  0.34836371  0.10556354  0.87567700     0.08590
H2541       H  0.31915543  0.11319170  0.84571311     0.08590
H2542       H  0.40024216  0.97813796  0.81608287     0.08570
H2543       H  0.38763328  0.98514742  0.77587345     0.08570
H2544       H  0.36142148  0.96766091  0.80452051     0.05350
C2545       C  0.63233105  0.03137199  0.85938984    -0.20450
C2546       C  0.63809650  0.01518869  0.83151301    -0.07020
C2547       C  0.66889791  0.00400619  0.82602564     0.13850
C2548       C  0.69321608  0.01343367  0.84642281    -0.20510
C2549       C  0.68768636  0.03419570  0.87138474    -0.07030
C2550       C  0.65638272  0.04259105  0.87796856     0.13840
C2551       C  0.64627007  0.06322207  0.90415161    -0.23860
H2552       H  0.60846454  0.03770288  0.86571719     0.15120
H2553       H  0.71670020  0.00449411  0.84279311     0.15150
C2554       C  0.67732302  0.98148645  0.80047363    -0.23810
H2555       H  0.63296616  0.08339597  0.89401820     0.05360
H2556       H  0.66603809  0.07282049  0.91715791     0.08590
H2557       H  0.63066376  0.04996265  0.92077415     0.08590
H2558       H  0.69762123  0.99110459  0.78717735     0.08570
H2559       H  0.65820535  0.97663778  0.78373770     0.08570
H2560       H  0.68460064  0.95874592  0.81140187     0.05350
C2561       C  0.36819268  0.74690104  0.01718028    -0.20450
C2562       C  0.38567822  0.75515241  0.99003377    -0.07020
C2563       C  0.36987382  0.77141228  0.96521653     0.13850
C2564       C  0.33789396  0.77950953  0.96866855    -0.20510
C2565       C  0.32040689  0.77110774  0.99572070    -0.07030
C2566       C  0.33605547  0.75438270  0.02033030     0.13840
C2567       C  0.32037200  0.74525877  0.05102315    -0.23860
H2568       H  0.38000682  0.73520292  0.03668496     0.15120
H2569       H  0.32626826  0.79244564  0.94985127     0.15150
C2570       C  0.38666109  0.78162889  0.93538386    -0.23810
H2571       H  0.33284793  0.75669318  0.07078459     0.05360
H2572       H  0.32147139  0.71931329  0.05455648     0.08590
H2573       H  0.29550414  0.75241557  0.05201512     0.08590
H2574       H  0.39598607  0.76073151  0.92320144     0.08570
H2575       H  0.40608721  0.79810512  0.94093257     0.08570
H2576       H  0.37071833  0.79405144  0.91871048     0.05350
C2577       C  0.68133031  0.75933983  0.01092134    -0.20450
C2578       C  0.66796058  0.76335656  0.98083174    -0.07020
C2579       C  0.68737907  0.77820214  0.95719770     0.13850
C2580       C  0.71766765  0.78996618  0.96498198    -0.20510
C2581       C  0.73123188  0.78529828  0.99485725    -0.07030
C2582       C  0.71250002  0.76879621  0.01788713     0.13840
C2583       C  0.72399694  0.76011716  0.05028790    -0.23860
H2584       H  0.66744837  0.74807958  0.02945893     0.15120
H2585       H  0.73163430  0.80158927  0.94681103     0.15150
C2586       C  0.67743072  0.78102498  0.92317460    -0.23810
H2587       H  0.71135508  0.77408841  0.06816164     0.05360
H2588       H  0.74935022  0.76364410  0.05285051     0.08590
H2589       H  0.71948229  0.73466919  0.05508949     0.08590
H2590       H  0.65704164  0.79680353  0.92059557     0.08570
H2591       H  0.67153486  0.75734189  0.91408523     0.08570
H2592       H  0.69644078  0.79105157  0.90794783     0.05350
C2593       C  0.54251854  0.76205785  0.13365261    -0.20450
C2594       C  0.51570798  0.74690755  0.12132241    -0.07020
C2595       C  0.48944883  0.74236046  0.14169677     0.13850
C2596       C  0.49058682  0.75327171  0.17301128    -0.20510
C2597       C  0.51707292  0.76910414  0.18499535    -0.07030
C2598       C  0.54346240  0.77321641  0.16490767     0.13840
C2599       C  0.57287389  0.78916642  0.17644545    -0.23860
H2600       H  0.56252934  0.76647607  0.11827792     0.15120
H2601       H  0.47045136  0.74954564  0.18829936     0.15150
C2602       C  0.46027659  0.72540143  0.13089651    -0.23810
H2603       H  0.59144515  0.79024320  0.15797980     0.05360
H2604       H  0.58230817  0.77610088  0.19717433     0.08590
H2605       H  0.56756038  0.81364406  0.18326789     0.08590
H2606       H  0.46667805  0.70198945  0.12161974     0.08570
H2607       H  0.44817923  0.73939414  0.11233235     0.08570
H2608       H  0.44324742  0.72156579  0.15053173     0.05350
C2609       C  0.56248138  0.78526187  0.82927252    -0.20450
C2610       C  0.53508618  0.77080735  0.84178551    -0.07020
C2611       C  0.50870022  0.76847961  0.82143421     0.13850
C2612       C  0.51116547  0.77905824  0.78960683    -0.20510
C2613       C  0.53905337  0.79243659  0.77699418    -0.07030
C2614       C  0.56446317  0.79702538  0.79803858     0.13840
C2615       C  0.59381863  0.81480651  0.78861130    -0.23860
H2616       H  0.58266364  0.78838385  0.84441321     0.15120
H2617       H  0.49103831  0.77674043  0.77423080     0.15150
C2618       C  0.47787797  0.75462552  0.83263527    -0.23810
H2619       H  0.60976010  0.81829138  0.80884513     0.05360
H2620       H  0.58766331  0.83851137  0.77929215     0.08590
H2621       H  0.60761588  0.80144993  0.77149662     0.08590
H2622       H  0.46762665  0.76964439  0.85114770     0.08570
H2623       H  0.48154975  0.73037964  0.84206845     0.08570
H2624       H  0.46047089  0.75322036  0.81323674     0.05350
C2625       C  0.52373091  0.86107417  0.83939185    -0.20450
C2626       C  0.55184530  0.85766538  0.85605500    -0.07020
C2627       C  0.57918220  0.87371601  0.84546770     0.13850
C2628       C  0.57595692  0.89772551  0.82267011    -0.20510
C2629       C  0.54622380  0.90502857  0.81040748    -0.07030
C2630       C  0.52060168  0.88442642  0.81638690     0.13840
C2631       C  0.48932074  0.88710641  0.80012366    -0.23860
H2632       H  0.50333486  0.84688307  0.84597905     0.15120
H2633       H  0.59603711  0.91254745  0.81665546     0.15150
C2634       C  0.61105560  0.86724282  0.85928285    -0.23810
H2635       H  0.48286592  0.86404874  0.78990494     0.05360
H2636       H  0.48978257  0.90459821  0.78058142     0.08590
H2637       H  0.47095374  0.89373254  0.81740695     0.08590
H2638       H  0.61723407  0.84214254  0.85637149     0.08570
H2639       H  0.61091459  0.87237594  0.88456817     0.08570
H2640       H  0.62970423  0.88194198  0.84783693     0.05350
C2641       C  0.54472770  0.84853394  0.12904789    -0.20450
C2642       C  0.51486472  0.84022102  0.11750997    -0.07020
C2643       C  0.48773112  0.84860696  0.13427682     0.13850
C2644       C  0.49095204  0.87089796  0.15781321    -0.20510
C2645       C  0.52040803  0.88471487  0.16396635    -0.07030
C2646       C  0.54794511  0.87161456  0.15159371     0.13840
C2647       C  0.58035619  0.88390902  0.15924806    -0.23860
H2648       H  0.56571058  0.83972785  0.11769813     0.15120
H2649       H  0.47006785  0.87988858  0.16920605     0.15150
C2650       C  0.45555707  0.83592554  0.12644455    -0.23810
H2651       H  0.59900864  0.87108891  0.14643008     0.05360
H2652       H  0.58481950  0.88096175  0.18489500     0.08590
H2653       H  0.58235496  0.90917986  0.15238979     0.08590
H2654       H  0.45551717  0.80983785  0.12891883     0.08570
H2655       H  0.44895652  0.84260553  0.10203532     0.08570
H2656       H  0.43724666  0.84517458  0.14249943     0.05350
C2657       C  0.39044252  0.91877715  0.02914321    -0.20450
C2658       C  0.36551190  0.91384946  0.00825996    -0.07020
C2659       C  0.36292400  0.88530440  0.99187289     0.13850
C2660       C  0.38610972  0.86263799  0.99596263    -0.20510
C2661       C  0.41231078  0.86855422  0.01478544    -0.07030
C2662       C  0.41457568  0.89665130  0.03188947     0.13840
C2663       C  0.44334731  0.90424311  0.05100443    -0.23860
H2664       H  0.39224766  0.94096629  0.04134087     0.15120
H2665       H  0.38503373  0.84124756  0.98233300     0.15150
C2666       C  0.33707139  0.87858443  0.96870827    -0.23810
H2667       H  0.44137595  0.92746056  0.06252515     0.05360
H2668       H  0.46446646  0.90489096  0.03553057     0.08590
H2669       H  0.44655261  0.88602882  0.06965445     0.08590
H2670       H  0.34727255  0.87622111  0.94474069     0.08570
H2671       H  0.31895476  0.89716585  0.96778957     0.08570
H2672       H  0.32536367  0.85606419  0.97542209     0.05350
C2673       C  0.66748557  0.85079745  0.00273086    -0.20450
C2674       C  0.64505426  0.85670468  0.97905075    -0.07020
C2675       C  0.64063268  0.88767614  0.96730863     0.13850
C2676       C  0.65964581  0.91130682  0.97864486    -0.20510
C2677       C  0.68388638  0.90481732  0.99983589    -0.07030
C2678       C  0.68690298  0.87484793  0.01352809     0.13840
C2679       C  0.71045348  0.86839920  0.03893844    -0.23860
H2680       H  0.66952157  0.82738372  0.01306213     0.15120
H2681       H  0.65688228  0.93500158  0.96916265     0.15150
C2682       C  0.61637264  0.89781200  0.94354746    -0.23810
H2683       H  0.71079300  0.84307187  0.04596680     0.05360
H2684       H  0.70467406  0.88244426  0.05999939     0.08590
H2685       H  0.73400095  0.87548297  0.03027194     0.08590
H2686       H  0.60063945  0.91560117  0.95403226     0.08570
H2687       H  0.60173416  0.87851978  0.93503710     0.08570
H2688       H  0.62837535  0.90890108  0.92282970     0.05350
C2689       C  0.87236032  0.78947162  0.02619107    -0.20450
C2690       C  0.88809031  0.79924496  0.99832441    -0.07020
C2691       C  0.87056672  0.79877915  0.96981732     0.13850
C2692       C  0.83859106  0.78909707  0.97033367    -0.20510
C2693       C  0.82321808  0.77907479  0.99827923    -0.07030
C2694       C  0.84079148  0.77942876  0.02662203     0.13840
C2695       C  0.82775574  0.76857936  0.05797131    -0.23860
H2696       H  0.88501151  0.78891379  0.04832582     0.15120
H2697       H  0.82552597  0.78934780  0.94853175     0.15150
C2698       C  0.88522761  0.80760104  0.93849809    -0.23810
H2699       H  0.83648632  0.74456445  0.06363657     0.05360
H2700       H  0.80194548  0.76867174  0.05845202     0.08590
H2701       H  0.83564459  0.78460340  0.07684142     0.08590
H2702       H  0.90454799  0.79109090  0.93302614     0.08570
H2703       H  0.89438056  0.83213782  0.93912585     0.08570
H2704       H  0.86798027  0.80633539  0.91894881     0.05350
C2705       C  0.21553996  0.77776044  0.02355126    -0.20450
C2706       C  0.22842562  0.76673972  0.99516719    -0.07020
C2707       C  0.20919787  0.76703626  0.96807359     0.13850
C2708       C  0.17832849  0.77842622  0.96986452    -0.20510
C2709       C  0.16484932  0.78884218  0.99826057    -0.07030
C2710       C  0.18415075  0.78862216  0.02555066     0.13840
C2711       C  0.17233640  0.80030912  0.05670641    -0.23860
H2712       H  0.23020248  0.77777605  0.04436543     0.15120
H2713       H  0.16422171  0.77806543  0.94866782     0.15150
C2714       C  0.22069631  0.75510788  0.93695460    -0.23810
H2715       H  0.19111093  0.80017044  0.07484455     0.05360
H2716       H  0.15296807  0.78497138  0.06567311     0.08590
H2717       H  0.16391080  0.82488324  0.05386230     0.08590
H2718       H  0.22816174  0.73040626  0.93993129     0.08570
H2719       H  0.24049956  0.76972902  0.92803724     0.08570
H2720       H  0.20207714  0.75566651  0.91866451     0.05350
C2721       C  0.01914515  0.80091688  0.80369616    -0.20450
C2722       C  0.04449305  0.78487456  0.78991389    -0.07020
C2723       C  0.06951058  0.77565573  0.81006043     0.13850
C2724       C  0.06870553  0.78303206  0.84235957    -0.20510
C2725       C  0.04322377  0.79865319  0.85636190    -0.07030
C2726       C  0.01812181  0.80797753  0.83622206     0.13840
C2727       C  0.98996892  0.82536470  0.84841744    -0.23860
H2728       H  0.99947558  0.80744798  0.78892294     0.15120
H2729       H  0.08806329  0.77538269  0.85705985     0.15150
C2730       C  0.09753445  0.75801869  0.79819926    -0.23810
H2731       H  0.97394343  0.83271161  0.82906271     0.05360
H2732       H  0.99774973  0.84697705  0.86064571     0.08590
H2733       H  0.97623623  0.80986648  0.86475141     0.08590
H2734       H  0.10997126  0.77251970  0.78009972     0.08570
H2735       H  0.08994816  0.73500353  0.78883833     0.08570
H2736       H  0.11471568  0.75285270  0.81722802     0.05350
C2737       C  0.03146387  0.78635056  0.18862832    -0.20450
C2738       C  0.01157776  0.76231844  0.20099054    -0.07020
C2739       C  0.99129260  0.74748538  0.17913421     0.13850
C2740       C  0.98948993  0.75869773  0.14774859    -0.20510
C2741       C  0.00754374  0.78428999  0.13638085    -0.07030
C2742       C  0.02862188  0.79864140  0.15764905     0.13840
C2743       C  0.04783534  0.82732494  0.14847601    -0.23860
H2744       H  0.04986085  0.79561268  0.20313439     0.15120
H2745       H  0.97434487  0.74638930  0.13149480     0.15150
C2746       C  0.97144667  0.71939125  0.18765558    -0.23810
H2747       H  0.05990145  0.83758553  0.16914898     0.05360
H2748       H  0.03229333  0.84575358  0.13828656     0.08590
H2749       H  0.06624818  0.82100818  0.13127886     0.08590
H2750       H  0.95436245  0.72564401  0.20598363     0.08570
H2751       H  0.98633601  0.69914300  0.19471187     0.08570
H2752       H  0.95742254  0.71185005  0.16741392     0.05350
C2753       C  0.84230570  0.26206694  0.95409559    -0.20450
C2754       C  0.86097763  0.25662585  0.98101214    -0.07020
C2755       C  0.84694018  0.26216215  0.01096148     0.13850
C2756       C  0.81593987  0.27392140  0.01276604    -0.20510
C2757       C  0.79807668  0.28080743  0.98574588    -0.07030
C2758       C  0.81172984  0.27471786  0.95594781     0.13840
C2759       C  0.79514945  0.28297432  0.92567851    -0.23860
H2760       H  0.85243681  0.25819678  0.93101790     0.15120
H2761       H  0.80577177  0.27853649  0.03561072     0.15150
C2762       C  0.86447366  0.25684234  0.04136760    -0.23810
H2763       H  0.81004108  0.27848980  0.90468939     0.05360
H2764       H  0.78926307  0.30828358  0.92532949     0.08590
H2765       H  0.77344392  0.26896261  0.92314359     0.08590
H2766       H  0.88542958  0.27253885  0.04217187     0.08570
H2767       H  0.87165837  0.23180584  0.04338569     0.08570
H2768       H  0.84972608  0.26202134  0.06229054     0.05350
C2769       C  0.02160210  0.27567653  0.82942547    -0.20450
C2770       C  0.99177864  0.26368146  0.83816481    -0.07020
C2771       C  0.96712194  0.26672258  0.81591425     0.13850
C2772       C  0.97324175  0.28065419  0.78584191    -0.20510
C2773       C  0.00331574  0.29216652  0.77706001    -0.07030
C2774       C  0.02745171  0.29045294  0.79998984     0.13840
C2775       C  0.05937838  0.30529250  0.79534106    -0.23860
H2776       H  0.04049773  0.27518769  0.84652356     0.15120
H2777       H  0.95447910  0.28189076  0.76867850     0.15150
C2778       C  0.93456771  0.25446162  0.82322226    -0.23810
H2779       H  0.07792769  0.28723765  0.79768374     0.05360
H2780       H  0.06344457  0.32307994  0.81379952     0.08590
H2781       H  0.06184643  0.31743481  0.77239587     0.08590
H2782       H  0.92391363  0.26805119  0.84258507     0.08570
H2783       H  0.93569842  0.22915832  0.83017196     0.08570
H2784       H  0.91882349  0.25664383  0.80247310     0.05350
C2785       C  0.18937007  0.26826766  0.95182113    -0.20450
C2786       C  0.20517563  0.27299677  0.98056163    -0.07020
C2787       C  0.18831355  0.26632812  0.00873737     0.13850
C2788       C  0.15679811  0.25601384  0.00749989    -0.20510
C2789       C  0.14084154  0.25137643  0.97880328    -0.07030
C2790       C  0.15809141  0.25676466  0.95046582     0.13840
C2791       C  0.14446343  0.24947539  0.91861005    -0.23860
H2792       H  0.20199469  0.27180137  0.92999622     0.15120
H2793       H  0.14439436  0.25199452  0.02956139     0.15150
C2794       C  0.20319602  0.27007428  0.04053038    -0.23810
H2795       H  0.16173766  0.25383329  0.89929524     0.05360
H2796       H  0.12375353  0.26438036  0.91358140     0.08590
H2797       H  0.13743973  0.22425284  0.91801031     0.08590
H2798       H  0.21078337  0.29477007  0.04359312     0.08570
H2799       H  0.22343509  0.25408774  0.04267940     0.08570
H2800       H  0.18665156  0.26405317  0.06007033     0.05350
C2801       C  0.98621203  0.26084523  0.13205031    -0.20450
C2802       C  0.01546157  0.25405340  0.11816511    -0.07020
C2803       C  0.04243088  0.25434474  0.13804014     0.13850
C2804       C  0.03923251  0.26160781  0.17036679    -0.20510
C2805       C  0.01014146  0.26981790  0.18360557    -0.07030
C2806       C  0.98334068  0.26974415  0.16379281     0.13840
C2807       C  0.95106145  0.27661471  0.17649130    -0.23860
H2808       H  0.96526927  0.26060113  0.11758874     0.15120
H2809       H  0.05970781  0.26108022  0.18549247     0.15150
C2810       C  0.07474272  0.24667446  0.12582613    -0.23810
H2811       H  0.93266978  0.27439593  0.15812209     0.05360
H2812       H  0.95035801  0.30104109  0.18506362     0.08590
H2813       H  0.94500766  0.25983560  0.19593940     0.08590
H2814       H  0.08282161  0.26519405  0.10882904     0.08570
H2815       H  0.07431499  0.22337055  0.11432684     0.08570
H2816       H  0.09234737  0.24559665  0.14508891     0.05350
C2817       C  0.85829272  0.54449334  0.25198086    -0.20450
C2818       C  0.87419605  0.51840713  0.26568218    -0.07020
C2819       C  0.85660883  0.48992438  0.26950557     0.13850
C2820       C  0.82508170  0.48830396  0.25888391    -0.20510
C2821       C  0.81000195  0.51402291  0.24398964    -0.07030
C2822       C  0.82711946  0.54253372  0.24063832     0.13840
C2823       C  0.81309275  0.57095126  0.22419770    -0.23860
H2824       H  0.87078567  0.56661453  0.24860629     0.15120
H2825       H  0.81221536  0.46629603  0.26141423     0.15150
C2826       C  0.87065091  0.46073998  0.28419892    -0.23810
H2827       H  0.82980493  0.59115650  0.22304332     0.05360
H2828       H  0.79183304  0.57935462  0.23599601     0.08590
H2829       H  0.80634091  0.56476620  0.19997565     0.08590
H2830       H  0.87992077  0.46611639  0.30796263     0.08570
H2831       H  0.88972132  0.45180904  0.26892400     0.08570
H2832       H  0.85297314  0.44149536  0.28704777     0.05350
C2833       C  0.21024935  0.49741333  0.23393173    -0.20450
C2834       C  0.22140773  0.52840039  0.22893336    -0.07020
C2835       C  0.19960431  0.55328048  0.23336498     0.13850
C2836       C  0.16792918  0.54648803  0.24086686    -0.20510
C2837       C  0.15652332  0.51556198  0.24535088    -0.07030
C2838       C  0.17847378  0.49058819  0.24190301     0.13840
C2839       C  0.16906663  0.45654439  0.24671809    -0.23860
H2840       H  0.22669890  0.47822292  0.23150026     0.15120
H2841       H  0.15187906  0.56604209  0.24324260     0.15150
C2842       C  0.20827303  0.58759343  0.23155896    -0.23810
H2843       H  0.18956705  0.44058514  0.24505502     0.05360
H2844       H  0.15212108  0.44943934  0.22826955     0.08590
H2845       H  0.15844409  0.45305421  0.27048483     0.08590
H2846       H  0.19599001  0.59906721  0.21141530     0.08570
H2847       H  0.23373412  0.59141789  0.22931913     0.08570
H2848       H  0.20080081  0.59926437  0.25356541     0.05350
C2849       C  0.03643221  0.70099087  0.24315911    -0.20450
C2850       C  0.00990298  0.71979575  0.24694966    -0.07020
C2851       C  0.98261856  0.70602148  0.26128300     0.13850
C2852       C  0.98217924  0.67359363  0.26910908    -0.20510
C2853       C  0.00869721  0.65459424  0.26480747    -0.07030
C2854       C  0.03677680  0.66923839  0.25311738     0.13840
C2855       C  0.06738234  0.65182120  0.25033998    -0.23860
H2856       H  0.05732135  0.71143363  0.23252002     0.15120
H2857       H  0.96060663  0.66289431  0.27798616     0.15150
C2858       C  0.95287619  0.72413342  0.26712127    -0.23810
H2859       H  0.08658594  0.66709934  0.24075350     0.05360
H2860       H  0.06477091  0.63169777  0.23432620     0.08590
H2861       H  0.07482147  0.64346839  0.27406173     0.08590
H2862       H  0.95446985  0.74887154  0.25848388     0.08570
H2863       H  0.94752335  0.72392541  0.29274477     0.08570
H2864       H  0.93288301  0.71266663  0.25492451     0.05350
C2865       C  0.99242905  0.36010512  0.25061217    -0.20450
C2866       C  0.02222569  0.37464591  0.24762381    -0.07020
C2867       C  0.04697101  0.35635708  0.23463167     0.13850
C2868       C  0.04054349  0.32589109  0.22330635    -0.20510
C2869       C  0.01112936  0.31111409  0.22728782    -0.07030
C2870       C  0.98668914  0.32883036  0.24132017     0.13840
C2871       C  0.95389623  0.31622459  0.24647376    -0.23860
H2872       H  0.97301205  0.37328164  0.26027557     0.15120
H2873       H  0.05917486  0.31303571  0.21193914     0.15150
C2874       C  0.08065162  0.36771190  0.23335340    -0.23810
H2875       H  0.93702277  0.33052342  0.23247863     0.05360
H2876       H  0.94746493  0.31795925  0.27177793     0.08590
H2877       H  0.95138469  0.29134977  0.23970894     0.08590
H2878       H  0.08847500  0.37428534  0.25731850     0.08570
H2879       H  0.08330208  0.38804170  0.21697459     0.08570
H2880       H  0.09679905  0.34919487  0.22488468     0.05350
C2881       C  0.06568589  0.36165774  0.11329291    -0.20450
C2882       C  0.03721704  0.34648212  0.10641308    -0.07020
C2883       C  0.01082312  0.35063772  0.12638540     0.13850
C2884       C  0.01287021  0.37166983  0.15093013    -0.20510
C2885       C  0.03945853  0.39067954  0.15459131    -0.07030
C2886       C  0.06693435  0.38466036  0.13672152     0.13840
C2887       C  0.09641062  0.40426612  0.13987128    -0.23860
H2888       H  0.08577165  0.35838487  0.09791341     0.15120
H2889       H  0.99211468  0.37570886  0.16524601     0.15150
C2890       C  0.97865178  0.33718734  0.11988793    -0.23810
H2891       H  0.11510665  0.39673779  0.12332997     0.05360
H2892       H  0.10578415  0.40188417  0.16416075     0.08590
H2893       H  0.09121565  0.42938121  0.13450154     0.08590
H2894       H  0.97936000  0.31671364  0.10415079     0.08570
H2895       H  0.96372407  0.35579943  0.10913183     0.08570
H2896       H  0.96732400  0.32947881  0.14218020     0.05350
C2897       C  0.97136267  0.60929085  0.10526334    -0.20450
C2898       C  0.96260173  0.61774029  0.13588080    -0.07020
C2899       C  0.94819851  0.64711918  0.14033667     0.13850
C2900       C  0.95189275  0.67040337  0.11653227    -0.20510
C2901       C  0.96931729  0.66390345  0.08918826    -0.07030
C2902       C  0.97508713  0.63218723  0.08168816     0.13840
C2903       C  0.98585721  0.62231877  0.04942330    -0.23860
H2904       H  0.97876842  0.58538533  0.10072255     0.15120
H2905       H  0.94337370  0.69401575  0.12015449     0.15150
C2906       C  0.93000510  0.65390112  0.16992860    -0.23810
H2907       H  0.98535796  0.59628207  0.04715651     0.05360
H2908       H  0.01034581  0.63012915  0.04492032     0.08590
H2909       H  0.97005036  0.63240203  0.03114798     0.08590
H2910       H  0.94599569  0.65456255  0.19052689     0.08570
H2911       H  0.91193461  0.63528325  0.17395125     0.08570
H2912       H  0.91739264  0.67664295  0.16802608     0.05350
C2913       C  0.28758600  0.54096772  0.82873821    -0.20450
C2914       C  0.28022887  0.51191405  0.84374822    -0.07020
C2915       C  0.26610284  0.48818778  0.82481186     0.13850
C2916       C  0.25663519  0.49549080  0.79364778    -0.20510
C2917       C  0.26311970  0.52478956  0.77917749    -0.07030
C2918       C  0.28024886  0.54729930  0.79678793     0.13840
C2919       C  0.29120139  0.57837331  0.78302746    -0.23860
H2920       H  0.29903343  0.55930394  0.84208284     0.15120
H2921       H  0.24499960  0.47759936  0.77985502     0.15150
C2922       C  0.26181546  0.45458985  0.83626198    -0.23810
H2923       H  0.28020788  0.59793933  0.79604766     0.05360
H2924       H  0.28540373  0.58113098  0.75783962     0.08590
H2925       H  0.31715947  0.58026786  0.78518565     0.08590
H2926       H  0.24454283  0.45309209  0.85570445     0.08570
H2927       H  0.28473405  0.44507298  0.84428587     0.08570
H2928       H  0.25296468  0.43908456  0.81735926     0.05350
C2929       C  0.28627792  0.55407553  0.13753678    -0.20450
C2930       C  0.28991698  0.52435146  0.12400907    -0.07020
C2931       C  0.28696108  0.49753548  0.14432434     0.13850
C2932       C  0.27642231  0.50137209  0.17584996    -0.20510
C2933       C  0.26829251  0.53115585  0.18782972    -0.07030
C2934       C  0.27431710  0.55793492  0.16804870     0.13840
C2935       C  0.26562491  0.59086805  0.17657993    -0.23860
H2936       H  0.29005643  0.57499048  0.12298118     0.15120
H2937       H  0.27258205  0.48067508  0.19067918     0.15150
C2938       C  0.29305930  0.46475382  0.13287214    -0.23810
H2939       H  0.27357730  0.60861260  0.15866538     0.05360
H2940       H  0.27681274  0.59761268  0.19868813     0.08590
H2941       H  0.23974419  0.59257432  0.17745759     0.08590
H2942       H  0.31736782  0.46339478  0.12340216     0.08570
H2943       H  0.27595170  0.45844284  0.11429046     0.08570
H2944       H  0.29065388  0.44692008  0.15221378     0.05350
C2945       C  0.28970481  0.67412170  0.96948919    -0.20450
C2946       C  0.28399274  0.65635655  0.99730646    -0.07020
C2947       C  0.27308360  0.67298087  0.02423761     0.13850
C2948       C  0.26441337  0.70485023  0.02110276    -0.20510
C2949       C  0.27030463  0.72249437  0.99352204    -0.07030
C2950       C  0.28428102  0.70691769  0.96763326     0.13840
C2951       C  0.29343543  0.72369673  0.93741494    -0.23860
H2952       H  0.29866374  0.66239882  0.94884168     0.15120
H2953       H  0.25417451  0.71664717  0.04110426     0.15150
C2954       C  0.27142077  0.65842266  0.05697184    -0.23810
H2955       H  0.28028794  0.71343912  0.91743249     0.05360
H2956       H  0.31900828  0.72071192  0.93315086     0.08590
H2957       H  0.28863891  0.74920931  0.93787489     0.08590
H2958       H  0.29477632  0.64888527  0.06355499     0.08570
H2959       H  0.25341985  0.63958462  0.05853218     0.08570
H2960       H  0.26506324  0.67599447  0.07499051     0.05350
C2961       C  0.27032453  0.36146810  0.94785799    -0.20450
C2962       C  0.27884158  0.37749329  0.97545786    -0.07020
C2963       C  0.27381988  0.36143456  0.00481025     0.13850
C2964       C  0.25917665  0.33149302  0.00553066    -0.20510
C2965       C  0.25027488  0.31578483  0.97808875    -0.07030
C2966       C  0.25620449  0.33123798  0.94874575     0.13840
C2967       C  0.24648880  0.31696975  0.91805612    -0.23860
H2968       H  0.27347490  0.37325712  0.92519765     0.15120
H2969       H  0.25479530  0.32016679  0.02802335     0.15150
C2970       C  0.28329039  0.37537080  0.03587507    -0.23810
H2971       H  0.25674442  0.33003515  0.89752536     0.05360
H2972       H  0.22059025  0.31841817  0.91585651     0.08590
H2973       H  0.25430274  0.29218403  0.91668441     0.08590
H2974       H  0.26991244  0.39717955  0.04030407     0.08570
H2975       H  0.30892130  0.38049848  0.03569001     0.08570
H2976       H  0.27847094  0.35898459  0.05603623     0.05350
C2977       C  0.14859218  0.52049091  0.08790424    -0.20450
C2978       C  0.17823671  0.51936218  0.10186212    -0.07020
C2979       C  0.18165701  0.50439052  0.13144929     0.13850
C2980       C  0.15538122  0.49433559  0.14843231    -0.20510
C2981       C  0.12567730  0.49729549  0.13534332    -0.07030
C2982       C  0.12235561  0.50790456  0.10370051     0.13840
C2983       C  0.09164029  0.50468178  0.08630030    -0.23860
H2984       H  0.14618273  0.53013808  0.06428867     0.15120
H2985       H  0.15790679  0.48597088  0.17259566     0.15150
C2986       C  0.21307489  0.50000600  0.14542716    -0.23810
H2987       H  0.09403229  0.51218559  0.06118505     0.05360
H2988       H  0.07303507  0.51915397  0.09686870     0.08590
H2989       H  0.08398943  0.47960810  0.08695593     0.08590
H2990       H  0.22403231  0.52361321  0.14666179     0.08570
H2991       H  0.22692894  0.48439340  0.13012376     0.08570
H2992       H  0.21189449  0.48908176  0.16933600     0.05350
C2993       C  0.15595265  0.34377724  0.00184608    -0.20450
C2994       C  0.13984856  0.33757219  0.97387115    -0.07020
C2995       C  0.15244100  0.34986578  0.94485162     0.13850
C2996       C  0.17611669  0.37277510  0.94569391    -0.20510
C2997       C  0.18704211  0.38376167  0.97441359    -0.07030
C2998       C  0.17965284  0.36663980  0.00247827     0.13840
C2999       C  0.19496588  0.37290047  0.03374382    -0.23860
H3000       H  0.14839100  0.33280929  0.02389168     0.15120
H3001       H  0.18319282  0.38479689  0.92401178     0.15150
C3002       C  0.13956944  0.34213527  0.91284981    -0.23810
H3003       H  0.20456958  0.35065653  0.04364913     0.05360
H3004       H  0.17724564  0.38200002  0.05048837     0.08590
H3005       H  0.21482209  0.38978563  0.03174213     0.08590
H3006       H  0.15572980  0.34997924  0.89357672     0.08570
H3007       H  0.11716035  0.35464470  0.90911857     0.08570
H3008       H  0.13639587  0.31642497  0.91065266     0.05350
C3009       C  0.19034908  0.66698687  0.02566938    -0.20450
C3010       C  0.19951980  0.65271857  0.99766239    -0.07020
C3011       C  0.19436192  0.66869723  0.96850293     0.13850
C3012       C  0.17287257  0.69336830  0.96750530    -0.20510
C3013       C  0.15843693  0.70330260  0.99523008    -0.07030
C3014       C  0.17060849  0.69310203  0.02470788     0.13840
C3015       C  0.16167745  0.70800132  0.05541638    -0.23860
H3016       H  0.19622115  0.65631548  0.04826865     0.15120
H3017       H  0.16533673  0.70269701  0.94482674     0.15150
C3018       C  0.20938174  0.65895716  0.93792888    -0.23810
H3019       H  0.18333782  0.71529771  0.06798203     0.05360
H3020       H  0.14842254  0.69078439  0.07042856     0.08590
H3021       H  0.14725948  0.72940106  0.05183101     0.08590
H3022       H  0.19109113  0.64980560  0.92181682     0.08570
H3023       H  0.22793318  0.64103245  0.94144556     0.08570
H3024       H  0.22097342  0.67952726  0.92630747     0.05350
C3025       C  0.17049505  0.56062220  0.72926211    -0.20450
C3026       C  0.15505857  0.53511572  0.71463723    -0.07020
C3027       C  0.17232781  0.50674888  0.71160308     0.13850
C3028       C  0.20380111  0.50510756  0.72254884    -0.20510
C3029       C  0.21892209  0.53077498  0.73699779    -0.07030
C3030       C  0.20127640  0.55847612  0.74138142     0.13840
C3031       C  0.21419823  0.58580663  0.75968210    -0.23860
H3032       H  0.15781634  0.58230914  0.73281063     0.15120
H3033       H  0.21680914  0.48348131  0.71983324     0.15150
C3034       C  0.15815320  0.47811537  0.69657526    -0.23810
H3035       H  0.19761160  0.60582379  0.76020415     0.05360
H3036       H  0.23585675  0.59535206  0.74895503     0.08590
H3037       H  0.21906681  0.57810921  0.78430312     0.08590
H3038       H  0.14957263  0.48433541  0.67258895     0.08570
H3039       H  0.13845819  0.46879583  0.71129125     0.08570
H3040       H  0.17557374  0.45891229  0.69424715     0.05350
C3041       C  0.02233280  0.38592597  0.70771104    -0.20450
C3042       C  0.99384901  0.40100101  0.71469887    -0.07020
C3043       C  0.96964788  0.38212690  0.72906900     0.13850
C3044       C  0.97545829  0.35016131  0.73739579    -0.20510
C3045       C  0.00476785  0.33587963  0.73224451    -0.07030
C3046       C  0.02837751  0.35450254  0.71682970     0.13840
C3047       C  0.06132607  0.34337924  0.71155173    -0.23860
H3048       H  0.04138840  0.39944028  0.69697830     0.15120
H3049       H  0.95690485  0.33627160  0.74844846     0.15150
C3050       C  0.93746634  0.39505691  0.73590791    -0.23810
H3051       H  0.06668122  0.34351085  0.68590995     0.05360
H3052       H  0.06499439  0.31966228  0.72128433     0.08590
H3053       H  0.07814107  0.35932544  0.72350330     0.08590
H3054       H  0.92756424  0.40602021  0.71419743     0.08570
H3055       H  0.93872450  0.41256725  0.75494739     0.08570
H3056       H  0.92086718  0.37627282  0.74403772     0.05350
C3057       C  0.01265229  0.72871165  0.74571647    -0.20450
C3058       C  0.04205137  0.74383508  0.74464755    -0.07020
C3059       C  0.06726757  0.72781451  0.73004763     0.13850
C3060       C  0.06359586  0.69594432  0.72182719    -0.20510
C3061       C  0.03438672  0.68020525  0.72419749    -0.07030
C3062       C  0.00797075  0.69818015  0.73381557     0.13840
C3063       C  0.97463849  0.68595053  0.73183082    -0.23860
H3064       H  0.99276182  0.74154746  0.75489879     0.15120
H3065       H  0.08384494  0.68342141  0.71301550     0.15150
C3066       C  0.09829228  0.74339366  0.72240442    -0.23810
H3067       H  0.95733216  0.70378782  0.73943854     0.05360
H3068       H  0.97106027  0.66479011  0.74711477     0.08590
H3069       H  0.96923653  0.68024295  0.70699240     0.08590
H3070       H  0.11746261  0.73114511  0.73527200     0.08570
H3071       H  0.09874873  0.76858610  0.72853513     0.08570
H3072       H  0.10289676  0.74184473  0.69669716     0.05350
C3073       C  0.86255557  0.56968962  0.73777764    -0.20450
C3074       C  0.87509089  0.54078360  0.72820179    -0.07020
C3075       C  0.85430655  0.51432952  0.72793386     0.13850
C3076       C  0.82269915  0.51751870  0.73774327    -0.20510
C3077       C  0.80989509  0.54645231  0.74684998    -0.07030
C3078       C  0.83064409  0.57291897  0.74689341     0.13840
C3079       C  0.81981469  0.60489119  0.75642324    -0.23860
H3080       H  0.87810922  0.58997297  0.73887477     0.15120
H3081       H  0.80777050  0.49693252  0.73859264     0.15150
C3082       C  0.86471619  0.48249823  0.71673042    -0.23810
H3083       H  0.83939196  0.62234966  0.75646168     0.05360
H3084       H  0.81018586  0.60357024  0.78071156     0.08590
H3085       H  0.80225887  0.61366992  0.73925543     0.08590
H3086       H  0.88148447  0.47175769  0.73366645     0.08570
H3087       H  0.87578856  0.48496510  0.69305765     0.08570
H3088       H  0.84459256  0.46583182  0.71467967     0.05350
C3089       C  0.15299455  0.49410097  0.81224309    -0.20450
C3090       C  0.14719824  0.52622951  0.80504635    -0.07020
C3091       C  0.16294153  0.54964697  0.82236111     0.13850
C3092       C  0.18314153  0.54014875  0.84633599    -0.20510
C3093       C  0.18346723  0.50872769  0.85738622    -0.07030
C3094       C  0.16912460  0.48509463  0.83962803     0.13840
C3095       C  0.16807018  0.45121701  0.85080760    -0.23860
H3096       H  0.14213569  0.47586895  0.79838052     0.15120
H3097       H  0.19550952  0.55806901  0.85946108     0.15150
C3098       C  0.15605184  0.58440601  0.81901124    -0.23810
H3099       H  0.15435127  0.43621259  0.83454965     0.05360
H3100       H  0.15676888  0.44955465  0.87442863     0.08590
H3101       H  0.19212847  0.44159214  0.85227552     0.08590
H3102       H  0.13145865  0.58889520  0.82646584     0.08570
H3103       H  0.15926547  0.59257086  0.79436675     0.08570
H3104       H  0.17163819  0.59895945  0.83397502     0.05350
C3105       C  0.95573918  0.41176140  0.83611182    -0.20450
C3106       C  0.98325681  0.41345310  0.81783113    -0.07020
C3107       C  0.00361184  0.38755396  0.81625211     0.13850
C3108       C  0.99817551  0.36207988  0.83641187    -0.20510
C3109       C  0.97332821  0.36240457  0.85800517    -0.07030
C3110       C  0.95074978  0.38639419  0.85684588     0.13840
C3111       C  0.92326993  0.38662985  0.87924641    -0.23860
H3112       H  0.93977354  0.43156850  0.83636781     0.15120
H3113       H  0.01527502  0.34333740  0.83764858     0.15150
C3114       C  0.03196874  0.38662055  0.79494222    -0.23810
H3115       H  0.90805783  0.40747399  0.87524718     0.05360
H3116       H  0.93176214  0.38710287  0.90394632     0.08590
H3117       H  0.90890043  0.36512415  0.87567264     0.08590
H3118       H  0.05372560  0.38709942  0.80930228     0.08570
H3119       H  0.03268742  0.40612759  0.77729286     0.08570
H3120       H  0.03147605  0.36450872  0.78165320     0.05350
C3121       C  0.04105807  0.70480157  0.84602697    -0.20450
C3122       C  0.06619479  0.70419288  0.86699203    -0.07020
C3123       C  0.09263169  0.68530247  0.86071754     0.13850
C3124       C  0.09134498  0.66455334  0.83518188    -0.20510
C3125       C  0.06348682  0.66136420  0.81778415    -0.07030
C3126       C  0.03843903  0.68256068  0.82274360     0.13840
C3127       C  0.00647135  0.67913181  0.80800897    -0.23860
H3128       H  0.02114707  0.71997656  0.85059340     0.15120
H3129       H  0.11032474  0.64808430  0.83154895     0.15150
C3130       C  0.12059125  0.68477412  0.88240753    -0.23810
H3131       H  0.99762279  0.70247930  0.80032198     0.05360
H3132       H  0.98971220  0.66935979  0.82583500     0.08590
H3133       H  0.00678068  0.66341754  0.78754747     0.08590
H3134       H  0.11311191  0.67745587  0.90657270     0.08570
H3135       H  0.13144679  0.70861367  0.88311564     0.08570
H3136       H  0.13877230  0.66801941  0.87437254     0.05350
C3137       C  0.73605459  0.37710409  0.97005634    -0.20450
C3138       C  0.74411985  0.39322801  0.99768381    -0.07020
C3139       C  0.75857129  0.37513963  0.02243113     0.13850
C3140       C  0.76670960  0.34339387  0.01756393    -0.20510
C3141       C  0.75812729  0.32726649  0.99035472    -0.07030
C3142       C  0.74174041  0.34448878  0.96653385     0.13840
C3143       C  0.72968574  0.32960995  0.93698978    -0.23860
H3144       H  0.72471691  0.38993488  0.95098832     0.15120
H3145       H  0.77869144  0.33042395  0.03610256     0.15150
C3146       C  0.76475152  0.38799605  0.05484243    -0.23810
H3147       H  0.74097314  0.34105087  0.91606788     0.05360
H3148       H  0.70385595  0.33290841  0.93542110     0.08590
H3149       H  0.73430370  0.30409673  0.93633855     0.08590
H3150       H  0.74247654  0.39662696  0.06520451     0.08570
H3151       H  0.78245794  0.40714957  0.05386140     0.08570
H3152       H  0.77401647  0.36970351  0.07131210     0.05350
C3153       C  0.75572964  0.69382268  0.96133365    -0.20450
C3154       C  0.75266916  0.67387284  0.98814984    -0.07020
C3155       C  0.76300862  0.68600976  0.01749788     0.13850
C3156       C  0.77661359  0.71627358  0.01877627    -0.20510
C3157       C  0.77853649  0.73657150  0.99243783    -0.07030
C3158       C  0.76795819  0.72483940  0.96311531     0.13840
C3159       C  0.76968102  0.74399603  0.93296713    -0.23860
H3160       H  0.74877511  0.68509375  0.93850621     0.15120
H3161       H  0.78480051  0.72429271  0.04119933     0.15150
C3162       C  0.76010530  0.66767173  0.04812573    -0.23810
H3163       H  0.78569369  0.73241455  0.91608118     0.05360
H3164       H  0.77828400  0.76828107  0.93654041     0.08590
H3165       H  0.74592960  0.74549034  0.92229238     0.08590
H3166       H  0.77379971  0.64567191  0.04701657     0.08570
H3167       H  0.73495055  0.66236484  0.05293486     0.08570
H3168       H  0.76915808  0.68105543  0.06850670     0.05350
C3169       C  0.77401260  0.49374788  0.14467732    -0.20450
C3170       C  0.75562981  0.51836777  0.13184121    -0.07020
C3171       C  0.74309197  0.54041384  0.15337119     0.13850
C3172       C  0.74926707  0.53717441  0.18623263    -0.20510
C3173       C  0.76852549  0.51303789  0.19860634    -0.07030
C3174       C  0.78078577  0.49098357  0.17715681     0.13840
C3175       C  0.80058842  0.46374085  0.18831411    -0.23860
H3176       H  0.78409937  0.47663862  0.12898637     0.15120
H3177       H  0.73960592  0.55410471  0.20239578     0.15150
C3178       C  0.72305651  0.56735914  0.14214234    -0.23810
H3179       H  0.80583010  0.44723269  0.16897960     0.05360
H3180       H  0.78800381  0.45024941  0.20719820     0.08590
H3181       H  0.82342913  0.47256743  0.19716590     0.08590
H3182       H  0.70270903  0.55826643  0.12862365     0.08570
H3183       H  0.73733658  0.58361760  0.12709912     0.08570
H3184       H  0.71378469  0.58115544  0.16211404     0.05350
C3185       C  0.73602767  0.57386304  0.83194225    -0.20450
C3186       C  0.73491832  0.54548862  0.84947385    -0.07020
C3187       C  0.74434708  0.51762460  0.83387374     0.13850
C3188       C  0.75748086  0.51967950  0.80312858    -0.20510
C3189       C  0.76112464  0.54859133  0.78664164    -0.07030
C3190       C  0.74806607  0.57570184  0.80093074     0.13840
C3191       C  0.74620109  0.60724836  0.78473994    -0.23860
H3192       H  0.72826801  0.59532602  0.84299614     0.15120
H3193       H  0.76568455  0.49846119  0.79196179     0.15150
C3194       C  0.74206186  0.48560638  0.84961538    -0.23810
H3195       H  0.75908530  0.62513242  0.79859346     0.05360
H3196       H  0.72121958  0.61438348  0.78259649     0.08590
H3197       H  0.75645051  0.60681852  0.76112025     0.08590
H3198       H  0.71729225  0.48063289  0.85649484     0.08570
H3199       H  0.75737775  0.48449865  0.87066657     0.08570
H3200       H  0.74965619  0.46662069  0.83363762     0.05350
C3201       C  0.88427431  0.56632852  0.88146547    -0.20450
C3202       C  0.85508816  0.55878988  0.86875635    -0.07020
C3203       C  0.85348568  0.54351023  0.83978354     0.13850
C3204       C  0.88083564  0.53475890  0.82443150    -0.20510
C3205       C  0.91023082  0.53939214  0.83836154    -0.07030
C3206       C  0.91201333  0.55609294  0.86723287     0.13840
C3207       C  0.94234722  0.56239812  0.88426360    -0.23860
H3208       H  0.88519197  0.57715100  0.90445058     0.15120
H3209       H  0.87892049  0.52303909  0.80200327     0.15150
C3210       C  0.82258636  0.53493325  0.82604445    -0.23810
H3211       H  0.93851647  0.57417317  0.90714027     0.05360
H3212       H  0.95717326  0.57842075  0.86968036     0.08590
H3213       H  0.95463708  0.53990927  0.88938164     0.08590
H3214       H  0.80919277  0.55698383  0.82268927     0.08570
H3215       H  0.80969807  0.51851737  0.84211693     0.08570
H3216       H  0.82526413  0.52287523  0.80328382     0.05350
C3217       C  0.85186229  0.53322998  0.12088689    -0.20450
C3218       C  0.86378990  0.51290309  0.09797585    -0.07020
C3219       C  0.89652536  0.50826825  0.09558803     0.13850
C3220       C  0.91609528  0.52281375  0.11678894    -0.20510
C3221       C  0.90369034  0.53823391  0.14258768    -0.07030
C3222       C  0.87211611  0.54670107  0.14291258     0.13840
C3223       C  0.86130826  0.57208605  0.16414378    -0.23860
H3224       H  0.82738283  0.54019810  0.12015331     0.15120
H3225       H  0.94109329  0.51897205  0.11558057     0.15150
C3226       C  0.91103516  0.48715877  0.07155982    -0.23810
H3227       H  0.83640141  0.57808098  0.15959503     0.05360
H3228       H  0.87550374  0.59371090  0.15951970     0.08590
H3229       H  0.86484814  0.56444148  0.18887001     0.08590
H3230       H  0.90645696  0.49611094  0.04736381     0.08570
H3231       H  0.90117764  0.46318439  0.07523992     0.08570
H3232       H  0.93695946  0.48553631  0.07416597     0.05350
C3233       C  0.83602807  0.38809177  0.96176281    -0.20450
C3234       C  0.84201896  0.41130144  0.98432704    -0.07020
C3235       C  0.87315336  0.41718177  0.99383108     0.13850
C3236       C  0.89716702  0.40055609  0.98008861    -0.20510
C3237       C  0.89102174  0.37398250  0.96192119    -0.07030
C3238       C  0.86028948  0.36877611  0.95082835     0.13840
C3239       C  0.85306163  0.34364298  0.92751300    -0.23860
H3240       H  0.81230007  0.38491085  0.95302149     0.15120
H3241       H  0.92110561  0.40631783  0.98685604     0.15150
C3242       C  0.88305681  0.44002963  0.01861009    -0.23810
H3243       H  0.82808003  0.34427335  0.92030904     0.05360
H3244       H  0.85830409  0.32030084  0.93798879     0.08590
H3245       H  0.86746176  0.34732327  0.90597574     0.08590
H3246       H  0.86375441  0.45071646  0.03184096     0.08570
H3247       H  0.89780870  0.45892558  0.00767864     0.08570
H3248       H  0.89746516  0.42709147  0.03628450     0.05350
C3249       C  0.86190309  0.65411288  0.00536825    -0.20450
C3250       C  0.84972725  0.65312630  0.97472097    -0.07020
C3251       C  0.85616664  0.67802194  0.95326620     0.13850
C3252       C  0.87845187  0.70089005  0.96167521    -0.20510
C3253       C  0.89388675  0.69905689  0.99093308    -0.07030
C3254       C  0.88384212  0.67690604  0.01387395     0.13840
C3255       C  0.89864637  0.67496185  0.04602295    -0.23860
H3256       H  0.85626406  0.63536824  0.02196884     0.15120
H3257       H  0.88595994  0.71852490  0.94438655     0.15150
C3258       C  0.84181424  0.67904097  0.92089681    -0.23810
H3259       H  0.88816150  0.65577007  0.06087273     0.05360
H3260       H  0.89535016  0.69752824  0.05842806     0.08590
H3261       H  0.92405085  0.67013587  0.04338630     0.08590
H3262       H  0.81583896  0.68027756  0.92296723     0.08570
H3263       H  0.84830324  0.65757028  0.90784305     0.08570
H3264       H  0.85001698  0.69996361  0.90700442     0.05350
C3265       C  0.24304041  0.54475905  0.63759725    -0.20450
C3266       C  0.24421174  0.51480955  0.62392308    -0.07020
C3267       C  0.25242625  0.48885741  0.64382793     0.13850
C3268       C  0.26361267  0.49437302  0.67465781    -0.20510
C3269       C  0.26507967  0.52479647  0.68722788    -0.07030
C3270       C  0.25252290  0.54994263  0.66880266     0.13840
C3271       C  0.24907776  0.58283701  0.68066936    -0.23860
H3272       H  0.23576038  0.56493099  0.62348555     0.15120
H3273       H  0.27088861  0.47462063  0.68936229     0.15150
C3274       C  0.24863878  0.45522724  0.63343650    -0.23810
H3275       H  0.26278866  0.59953465  0.66548219     0.05360
H3276       H  0.25754185  0.58491518  0.70491459     0.08590
H3277       H  0.22392642  0.58965830  0.68013466     0.08590
H3278       H  0.26530262  0.44962781  0.61426858     0.08570
H3279       H  0.22417512  0.45127691  0.62526921     0.08570
H3280       H  0.25317850  0.43826620  0.65309618     0.05350
C3281       C  0.25964092  0.50796541  0.33216331    -0.20450
C3282       C  0.24507054  0.53521283  0.34367137    -0.07020
C3283       C  0.24066853  0.56095832  0.32256387     0.13850
C3284       C  0.25237691  0.55939875  0.29160087    -0.20510
C3285       C  0.26722688  0.53245987  0.28004132    -0.07030
C3286       C  0.27075906  0.50628980  0.30083419     0.13840
C3287       C  0.28663042  0.47664697  0.29045346    -0.23860
H3288       H  0.26368555  0.48825575  0.34818283     0.15120
H3289       H  0.25062747  0.57996855  0.27667906     0.15150
C3290       C  0.22316990  0.59008998  0.33211923    -0.23810
H3291       H  0.28587252  0.45799341  0.30913092     0.05360
H3292       H  0.31172484  0.48168849  0.28518435     0.08590
H3293       H  0.27472570  0.46732744  0.26927957     0.08590
H3294       H  0.23684900  0.60351208  0.34964552     0.08570
H3295       H  0.19987627  0.58330662  0.34213198     0.08570
H3296       H  0.21902989  0.60621028  0.31167992     0.05350
C3297       C  0.26782202  0.68112679  0.44760077    -0.20450
C3298       C  0.25562621  0.66827799  0.47619322    -0.07020
C3299       C  0.25568135  0.68814927  0.50281821     0.13850
C3300       C  0.26701205  0.71958089  0.49985103    -0.20510
C3301       C  0.27859780  0.73233101  0.47107491    -0.07030
C3302       C  0.28002906  0.71209890  0.44493204     0.13840
C3303       C  0.29520260  0.72237900  0.41420593    -0.23860
H3304       H  0.26898834  0.66640314  0.42704159     0.15120
H3305       H  0.26644900  0.73466827  0.52019499     0.15150
C3306       C  0.24333755  0.67688781  0.53437543    -0.23810
H3307       H  0.29276956  0.70417619  0.39585616     0.05360
H3308       H  0.32056342  0.72636385  0.41778386     0.08590
H3309       H  0.28490987  0.74437542  0.40483651     0.08590
H3310       H  0.25827727  0.65759876  0.54376580     0.08570
H3311       H  0.21870119  0.66847654  0.53194292     0.08570
H3312       H  0.24351103  0.69599326  0.55195164     0.05350
C3313       C  0.25518102  0.37930740  0.46067513    -0.20450
C3314       C  0.24158290  0.38880642  0.48919141    -0.07020
C3315       C  0.23910876  0.36628545  0.51413212     0.13850
C3316       C  0.25032594  0.33538282  0.50978350    -0.20510
C3317       C  0.26355232  0.32573356  0.48105126    -0.07030
C3318       C  0.26631421  0.34850515  0.45634297     0.13840
C3319       C  0.28110046  0.34102693  0.42521252    -0.23860
H3320       H  0.25827563  0.39659647  0.44179116     0.15120
H3321       H  0.24922080  0.31876005  0.52924830     0.15150
C3322       C  0.22460694  0.37450641  0.54536377    -0.23810
H3323       H  0.28347972  0.36226883  0.40970855     0.05360
H3324       H  0.26596861  0.32412586  0.41260515     0.08590
H3325       H  0.30507818  0.33163256  0.42901822     0.08590
H3326       H  0.20068305  0.38411714  0.54155202     0.08570
H3327       H  0.23936793  0.39210320  0.55758675     0.08570
H3328       H  0.22243253  0.35351498  0.56124141     0.05350
C3329       C  0.55431406  0.69113334  0.75544113    -0.20450
C3330       C  0.52445235  0.67653636  0.75479879    -0.07020
C3331       C  0.49861409  0.69584669  0.74594546     0.13850
C3332       C  0.50414976  0.72688033  0.73379238    -0.20510
C3333       C  0.53443485  0.74063906  0.73272093    -0.07030
C3334       C  0.55939100  0.72268762  0.74586644     0.13840
C3335       C  0.59193049  0.73559981  0.75062438    -0.23860
H3336       H  0.57441571  0.67775370  0.76357619     0.15120
H3337       H  0.48444484  0.74096512  0.72590475     0.15150
C3338       C  0.46511074  0.68466019  0.75011709    -0.23810
H3339       H  0.60912855  0.72194152  0.73673028     0.05360
H3340       H  0.59817884  0.73379623  0.77598993     0.08590
H3341       H  0.59379619  0.76045264  0.74353546     0.08590
H3342       H  0.46084964  0.67838086  0.77529692     0.08570
H3343       H  0.46010020  0.66387022  0.73550383     0.08570
H3344       H  0.44809279  0.70326144  0.74327441     0.05350
C3345       C  0.70554865  0.51650454  0.75283218    -0.20450
C3346       C  0.71890615  0.54186366  0.73551973    -0.07020
C3347       C  0.70007501  0.56848756  0.72934384     0.13850
C3348       C  0.66930760  0.56965846  0.74174837    -0.20510
C3349       C  0.65543229  0.54403571  0.75853888    -0.07030
C3350       C  0.67433990  0.51709388  0.76430239     0.13840
C3351       C  0.66229679  0.48888551  0.78279693    -0.23860
H3352       H  0.71979940  0.49592992  0.75746906     0.15120
H3353       H  0.65547012  0.59042671  0.73671335     0.15150
C3354       C  0.71158162  0.59514961  0.70825372    -0.23810
H3355       H  0.68114279  0.47142159  0.78735146     0.05360
H3356       H  0.64359586  0.47674642  0.76937159     0.08590
H3357       H  0.65309354  0.49644136  0.80597963     0.08590
H3358       H  0.71744101  0.58588401  0.68478813     0.08570
H3359       H  0.73292487  0.60643738  0.71743935     0.08570
H3360       H  0.69356226  0.61373370  0.70516503     0.05350
C3361       C  0.36459738  0.54809587  0.72912148    -0.20450
C3362       C  0.37559293  0.52340268  0.74838892    -0.07020
C3363       C  0.35426153  0.49886028  0.75674726     0.13850
C3364       C  0.32249240  0.50050501  0.74681771    -0.20510
C3365       C  0.31108006  0.52595336  0.72834884    -0.07030
C3366       C  0.33326445  0.54940536  0.71843444     0.13840
C3367       C  0.32478109  0.57617904  0.69651205    -0.23860
H3368       H  0.38116017  0.56619307  0.72137347     0.15120
H3369       H  0.30640678  0.48165167  0.75349425     0.15150
C3370       C  0.36470971  0.47123241  0.77668072    -0.23810
H3371       H  0.34562683  0.59074842  0.68979680     0.05360
H3372       H  0.30823129  0.59210567  0.70828292     0.08590
H3373       H  0.31489919  0.56690543  0.67436128     0.08590
H3374       H  0.37455137  0.47974603  0.79922871     0.08570
H3375       H  0.38287893  0.45770653  0.76398442     0.08570
H3376       H  0.34485177  0.45492384  0.78231169     0.05350
C3377       C  0.48166974  0.38263716  0.74463140    -0.20450
C3378       C  0.50738176  0.39684185  0.76007861    -0.07020
C3379       C  0.53466632  0.37813094  0.76478922     0.13850
C3380       C  0.53526997  0.34678388  0.75394236    -0.20510
C3381       C  0.51006043  0.33338229  0.73721887    -0.07030
C3382       C  0.48281237  0.35184165  0.73278821     0.13840
C3383       C  0.45434729  0.33921489  0.71609164    -0.23860
H3384       H  0.46047457  0.39609325  0.74071286     0.15120
H3385       H  0.55567179  0.33247293  0.75886469     0.15150
C3386       C  0.56352622  0.39064991  0.78096754    -0.23810
H3387       H  0.43451544  0.35607131  0.71632742     0.05360
H3388       H  0.44596908  0.31717301  0.72781253     0.08590
H3389       H  0.46031315  0.33494553  0.69108081     0.08590
H3390       H  0.55720485  0.39918945  0.80474387     0.08570
H3391       H  0.57420504  0.41001443  0.76655210     0.08570
H3392       H  0.58175902  0.37225515  0.78403014     0.05350
C3393       C  0.38565089  0.49128303  0.64239828    -0.20450
C3394       C  0.41654959  0.49654474  0.63218706    -0.07020
C3395       C  0.42442313  0.49432110  0.60001223     0.13850
C3396       C  0.40023912  0.49065762  0.57821616    -0.20510
C3397       C  0.36878306  0.48946549  0.58816300    -0.07030
C3398       C  0.36146585  0.48807295  0.62056057     0.13840
C3399       C  0.32817623  0.48585982  0.63209692    -0.23860
H3400       H  0.38011502  0.49229308  0.66735562     0.15120
H3401       H  0.40563015  0.49121285  0.55319479     0.15150
C3402       C  0.45801889  0.49635562  0.58864036    -0.23810
H3403       H  0.32687853  0.48580641  0.65825637     0.05360
H3404       H  0.31757203  0.46358448  0.62381442     0.08590
H3405       H  0.31461584  0.50628455  0.62294857     0.08590
H3406       H  0.47221932  0.47802529  0.60085095     0.08570
H3407       H  0.46809723  0.51994580  0.59341187     0.08570
H3408       H  0.45979885  0.49252641  0.56285318     0.05350
C3409       C  0.76787585  0.70301612  0.51740592    -0.20450
C3410       C  0.77225055  0.72089979  0.48971479    -0.07020
C3411       C  0.78823595  0.70651657  0.46420899     0.13850
C3412       C  0.79630397  0.67420226  0.46621078    -0.20510
C3413       C  0.79196979  0.65628027  0.49415626    -0.07030
C3414       C  0.77979020  0.67228352  0.52097089     0.13840
C3415       C  0.78061337  0.65860757  0.55413357    -0.23860
H3416       H  0.75611950  0.71377645  0.53712421     0.15120
H3417       H  0.80644761  0.66306336  0.44577919     0.15150
C3418       C  0.79681145  0.72411722  0.43433503    -0.23810
H3419       H  0.80520844  0.65269296  0.56044759     0.05360
H3420       H  0.77211669  0.67561421  0.57181263     0.08590
H3421       H  0.76565728  0.63742184  0.55679422     0.08590
H3422       H  0.82262490  0.72294426  0.43055569     0.08570
H3423       H  0.79034416  0.74922490  0.43507065     0.08570
H3424       H  0.78479856  0.71318883  0.41401312     0.05350
C3425       C  0.77695780  0.50747326  0.64835010    -0.20450
C3426       C  0.78884304  0.53414952  0.63189771    -0.07020
C3427       C  0.79077260  0.56299315  0.64856584     0.13850
C3428       C  0.77945291  0.56447599  0.67980373    -0.20510
C3429       C  0.76572599  0.53835296  0.69538136    -0.07030
C3430       C  0.76565471  0.50907881  0.67968530     0.13840
C3431       C  0.75420667  0.47912520  0.69566525    -0.23860
H3432       H  0.77543960  0.48523435  0.63626696     0.15120
H3433       H  0.78081853  0.58657098  0.69212453     0.15150
C3434       C  0.80474121  0.59263781  0.63403299    -0.23810
H3435       H  0.75611229  0.45854482  0.67996694     0.05360
H3436       H  0.72944912  0.48120234  0.70254227     0.08590
H3437       H  0.76789437  0.47380596  0.71713681     0.08590
H3438       H  0.78921850  0.60198468  0.61516145     0.08570
H3439       H  0.82847143  0.58770019  0.62439266     0.08570
H3440       H  0.80736728  0.61157753  0.65160977     0.05350
C3441       C  0.77303208  0.36332951  0.52142178    -0.20450
C3442       C  0.78201382  0.37678136  0.49207937    -0.07020
C3443       C  0.78012247  0.35751577  0.46502047     0.13850
C3444       C  0.76796015  0.32668049  0.46784038    -0.20510
C3445       C  0.75825972  0.31354577  0.49693736    -0.07030
C3446       C  0.76113631  0.33216213  0.52419772     0.13840
C3447       C  0.75169769  0.31946409  0.55630479    -0.23860
H3448       H  0.77396126  0.37775852  0.54223411     0.15120
H3449       H  0.76603449  0.31243733  0.44699262     0.15150
C3450       C  0.79136357  0.36877721  0.43293015    -0.23810
H3451       H  0.75374541  0.33774793  0.57461910     0.05360
H3452       H  0.76683829  0.29959350  0.56352020     0.08590
H3453       H  0.72701775  0.31100434  0.55607682     0.08590
H3454       H  0.81557570  0.37852812  0.43470833     0.08570
H3455       H  0.77532893  0.38686454  0.42304005     0.08570
H3456       H  0.79200109  0.34925955  0.41581723     0.05350
C3457       C  0.78411855  0.52700042  0.33899733    -0.20450
C3458       C  0.78432678  0.49749380  0.35449094    -0.07020
C3459       C  0.77610124  0.47054991  0.33667786     0.13850
C3460       C  0.76493321  0.47445498  0.30544567    -0.20510
C3461       C  0.76268812  0.50435619  0.29086892    -0.07030
C3462       C  0.77336581  0.53084031  0.30797185     0.13840
C3463       C  0.77206362  0.56400674  0.29526263    -0.23860
H3464       H  0.79043082  0.54797216  0.35184629     0.15120
H3465       H  0.75827283  0.45394086  0.29206790     0.15150
C3466       C  0.77979688  0.43755729  0.34983709    -0.23810
H3467       H  0.75831171  0.57880904  0.31159439     0.05360
H3468       H  0.76035121  0.56524405  0.27214902     0.08590
H3469       H  0.79622544  0.57392241  0.29331704     0.08590
H3470       H  0.76312806  0.43283887  0.36948326     0.08570
H3471       H  0.80425316  0.43427290  0.35827773     0.08570
H3472       H  0.77510645  0.41959647  0.33166623     0.05350
C3473       C  0.65949699  0.58948253  0.65090385    -0.20450
C3474       C  0.65021813  0.56193337  0.66719685    -0.07020
C3475       C  0.66905721  0.53467300  0.66587881     0.13850
C3476       C  0.69399588  0.53413142  0.64481784    -0.20510
C3477       C  0.70014866  0.55981149  0.62465005    -0.07030
C3478       C  0.68506562  0.58884880  0.62984640     0.13840
C3479       C  0.69524929  0.61857882  0.61285312    -0.23860
H3480       H  0.64560493  0.61066414  0.65297256     0.15120
H3481       H  0.70648730  0.51220158  0.64165097     0.15150
C3482       C  0.66168046  0.50465477  0.68409956    -0.23810
H3483       H  0.68025512  0.63888773  0.61909157     0.05360
H3484       H  0.69405933  0.61540716  0.58715206     0.08590
H3485       H  0.71990447  0.62426026  0.61928969     0.08590
H3486       H  0.65452510  0.48597321  0.66753851     0.08570
H3487       H  0.64330637  0.50744919  0.70236029     0.08570
H3488       H  0.68263023  0.49668580  0.69680559     0.05350
C3489       C  0.67964634  0.77964572  0.45929964    -0.20450
C3490       C  0.66399504  0.78697309  0.48758152    -0.07020
C3491       C  0.68082417  0.78208965  0.51634966     0.13850
C3492       C  0.71154891  0.76985480  0.51574432    -0.20510
C3493       C  0.72724949  0.76301311  0.48758948    -0.07030
C3494       C  0.71077499  0.76793686  0.45880945     0.13840
C3495       C  0.72528666  0.76103135  0.42725197    -0.23860
H3496       H  0.66727373  0.78271313  0.43719464     0.15120
H3497       H  0.72389623  0.76601713  0.53772575     0.15150
C3498       C  0.66730757  0.78981678  0.54824200    -0.23810
H3499       H  0.70859060  0.76545552  0.40762716     0.05360
H3500       H  0.73222059  0.73607132  0.42609225     0.08590
H3501       H  0.74598672  0.77624100  0.42273506     0.08590
H3502       H  0.64692639  0.77424861  0.55385454     0.08570
H3503       H  0.66021320  0.81492988  0.54856572     0.08570
H3504       H  0.68465562  0.78627198  0.56747551     0.05350
C3505       C  0.56022760  0.78619522  0.63277630    -0.20450
C3506       C  0.53291678  0.79951160  0.61932030    -0.07020
C3507       C  0.50702036  0.80436539  0.63997180     0.13850
C3508       C  0.50928689  0.79574935  0.67246321    -0.20510
C3509       C  0.53638574  0.78153006  0.68532167    -0.07030
C3510       C  0.56180351  0.77602245  0.66457795     0.13840
C3511       C  0.59041107  0.75808474  0.67503227    -0.23860
H3512       H  0.58039876  0.78196444  0.61785218     0.15120
H3513       H  0.48953491  0.79989202  0.68800329     0.15150
C3514       C  0.47705065  0.81904953  0.62831977    -0.23810
H3515       H  0.60782844  0.75596120  0.65587994     0.05360
H3516       H  0.58346503  0.73410528  0.68323677     0.08590
H3517       H  0.60308604  0.77024135  0.69365169     0.08590
H3518       H  0.46547202  0.80335262  0.61115557     0.08570
H3519       H  0.48228184  0.84230263  0.61703658     0.08570
H3520       H  0.46012192  0.82285693  0.64786677     0.05350
C3521       C  0.36363499  0.81740762  0.45715436    -0.20450
C3522       C  0.38630671  0.79418346  0.46324429    -0.07020
C3523       C  0.37571304  0.76290793  0.45899124     0.13850
C3524       C  0.34489531  0.75599958  0.46922205    -0.20510
C3525       C  0.32096576  0.77804835  0.46368827    -0.07030
C3526       C  0.33202078  0.80781307  0.45124891     0.13840
C3527       C  0.31759462  0.82213149  0.42222388    -0.23860
H3528       H  0.37140452  0.84112319  0.45112357     0.15120
H3529       H  0.33852292  0.73177723  0.47359670     0.15150
C3530       C  0.38226374  0.74929819  0.42687834    -0.23810
H3531       H  0.33363333  0.81850194  0.40189700     0.05360
H3532       H  0.31511005  0.84785821  0.42486870     0.08590
H3533       H  0.29512802  0.81050502  0.41599911     0.08590
H3534       H  0.40706420  0.75070956  0.41952304     0.08570
H3535       H  0.36866294  0.76257621  0.40877010     0.08570
H3536       H  0.37445716  0.72452828  0.42573242     0.05350
C3537       C  0.54342825  0.77440262  0.32717213    -0.20450
C3538       C  0.51580189  0.78779976  0.33941128    -0.07020
C3539       C  0.48903544  0.78945001  0.31964999     0.13850
C3540       C  0.49052156  0.77745477  0.28890871    -0.20510
C3541       C  0.51788103  0.76349616  0.27689749    -0.07030
C3542       C  0.54475464  0.76225512  0.29638836     0.13840
C3543       C  0.57499909  0.74837033  0.28470956    -0.23860
H3544       H  0.56384436  0.77223152  0.34225229     0.15120
H3545       H  0.47001785  0.77900952  0.27402923     0.15150
C3546       C  0.45891980  0.80446013  0.33042670    -0.23810
H3547       H  0.59376724  0.74923750  0.30281583     0.05360
H3548       H  0.58346049  0.76139880  0.26341985     0.08590
H3549       H  0.57106875  0.72344635  0.27860548     0.08590
H3550       H  0.46388530  0.82860648  0.33886033     0.08570
H3551       H  0.44778930  0.79014272  0.34957130     0.08570
H3552       H  0.44156665  0.80636798  0.31098658     0.05350
C3553       C  0.35089131  0.67176582  0.48705234    -0.20450
C3554       C  0.34693063  0.65401213  0.45985005    -0.07020
C3555       C  0.36966923  0.65530026  0.43571539     0.13850
C3556       C  0.39779889  0.67111992  0.44105050    -0.20510
C3557       C  0.40285760  0.68678046  0.46926339    -0.07030
C3558       C  0.37898988  0.68775946  0.49244834     0.13840
C3559       C  0.38285011  0.70525260  0.52288798    -0.23860
H3560       H  0.33314540  0.67046361  0.50548721     0.15120
H3561       H  0.41629061  0.67050318  0.42363302     0.15150
C3562       C  0.36575053  0.63736972  0.40584382    -0.23810
H3563       H  0.40105752  0.69371865  0.53763185     0.05360
H3564       H  0.36069922  0.70532564  0.53684558     0.08590
H3565       H  0.38970426  0.73012956  0.51793269     0.08590
H3566       H  0.34404792  0.64502459  0.39352888     0.08570
H3567       H  0.36406214  0.61211271  0.41215669     0.08570
H3568       H  0.38598937  0.64081052  0.38946821     0.05350
C3569       C  0.52186788  0.70974751  0.63425019    -0.20450
C3570       C  0.54976955  0.71274265  0.61695297    -0.07020
C3571       C  0.57724591  0.69739667  0.62731921     0.13850
C3572       C  0.57428844  0.67443918  0.65121694    -0.20510
C3573       C  0.54450675  0.66674479  0.66361071    -0.07030
C3574       C  0.51842980  0.68602140  0.65673607     0.13840
C3575       C  0.48591033  0.68033335  0.66990602    -0.23860
H3576       H  0.50132652  0.72314010  0.62718939     0.15120
H3577       H  0.59443761  0.66018775  0.65753980     0.15150
C3578       C  0.60884486  0.70338467  0.61201185    -0.23810
H3579       H  0.46994731  0.67289801  0.65071368     0.05360
H3580       H  0.47669228  0.70242257  0.67989332     0.08590
H3581       H  0.48547706  0.66203910  0.68871512     0.08590
H3582       H  0.61599206  0.72831171  0.61426000     0.08570
H3583       H  0.60771012  0.69888143  0.58662641     0.08570
H3584       H  0.62747012  0.68835496  0.62253729     0.05350
C3585       C  0.67074168  0.69595113  0.49381273    -0.20450
C3586       C  0.64515476  0.69151445  0.51419319    -0.07020
C3587       C  0.64226888  0.66354427  0.53247333     0.13850
C3588       C  0.66703223  0.64252035  0.53259282    -0.20510
C3589       C  0.69207822  0.64651945  0.51154620    -0.07030
C3590       C  0.69298912  0.67243891  0.49051465     0.13840
C3591       C  0.71371978  0.67363864  0.46174955    -0.23860
H3592       H  0.67082861  0.71562654  0.47720848     0.15120
H3593       H  0.66408781  0.62025902  0.54519456     0.15150
C3594       C  0.61198853  0.65231432  0.54770497    -0.23810
H3595       H  0.69905781  0.67093634  0.44034705     0.05360
H3596       H  0.73198095  0.65518389  0.46182925     0.08590
H3597       H  0.72537376  0.69674177  0.46023249     0.08590
H3598       H  0.60395738  0.63038415  0.53618248     0.08570
H3599       H  0.59272789  0.66954451  0.54554451     0.08570
H3600       H  0.61601288  0.64679084  0.57304693     0.05350
C3601       C  0.66140855  0.51237009  0.25658326    -0.20450
C3602       C  0.65280535  0.49412616  0.23088427    -0.07020
C3603       C  0.67658170  0.47811569  0.21455176     0.13850
C3604       C  0.70846299  0.48170335  0.22392071    -0.20510
C3605       C  0.71760108  0.50184318  0.24875624    -0.07030
C3606       C  0.69281586  0.51652094  0.26587761     0.13840
C3607       C  0.69803552  0.53773996  0.29350644    -0.23860
H3608       H  0.64301084  0.52402526  0.26955021     0.15120
H3609       H  0.72629039  0.46853328  0.21169528     0.15150
C3610       C  0.66834251  0.45761197  0.18721661    -0.23810
H3611       H  0.67559676  0.54597967  0.30389562     0.05360
H3612       H  0.71070041  0.55919489  0.28558511     0.08590
H3613       H  0.71027851  0.52516836  0.31283219     0.08590
H3614       H  0.65657255  0.47195322  0.16863801     0.08570
H3615       H  0.65219224  0.43841358  0.19524967     0.08570
H3616       H  0.68958309  0.44681338  0.17673703     0.05350
C3617       C  0.36119067  0.56047311  0.22580850    -0.20450
C3618       C  0.37591074  0.53282951  0.21519326    -0.07020
C3619       C  0.35753322  0.50462638  0.21510726     0.13850
C3620       C  0.32649427  0.50480066  0.22687949    -0.20510
C3621       C  0.31246521  0.53219796  0.23834650    -0.07030
C3622       C  0.33026476  0.56026901  0.23801227     0.13840
C3623       C  0.31730987  0.58966563  0.25229191    -0.23860
H3624       H  0.37437209  0.58233246  0.22570902     0.15120
H3625       H  0.31286046  0.48319185  0.22694695     0.15150
C3626       C  0.36975181  0.47408192  0.20239280    -0.23810
H3627       H  0.33095752  0.61085565  0.24480384     0.05360
H3628       H  0.31743444  0.58692197  0.27832503     0.08590
H3629       H  0.29281749  0.59382482  0.24531853     0.08590
H3630       H  0.38880031  0.46484178  0.21764918     0.08570
H3631       H  0.37839503  0.47784079  0.17787421     0.08570
H3632       H  0.35115170  0.45559264  0.20174498     0.05350
C3633       C  0.47782287  0.33114824  0.23798838    -0.20450
C3634       C  0.50423175  0.31231201  0.24424477    -0.07020
C3635       C  0.53425795  0.32592397  0.23855803     0.13850
C3636       C  0.53692899  0.35730561  0.22699904    -0.20510
C3637       C  0.51042701  0.37641276  0.22112861    -0.07030
C3638       C  0.48032527  0.36257657  0.22661479     0.13840
C3639       C  0.45042000  0.38070745  0.22135208    -0.23860
H3640       H  0.45470690  0.32130248  0.24177908     0.15120
H3641       H  0.56020026  0.36736092  0.22355932     0.15150
C3642       C  0.56380351  0.30783237  0.24553574    -0.23810
H3643       H  0.42918883  0.36630690  0.22710058     0.05360
H3644       H  0.44879259  0.38807466  0.19619291     0.08590
H3645       H  0.44994610  0.40166767  0.23658676     0.08590
H3646       H  0.56401987  0.28547202  0.23251911     0.08570
H3647       H  0.56518039  0.30261674  0.27113572     0.08570
H3648       H  0.58523577  0.32144911  0.23872414     0.05350
C3649       C  0.49322543  0.66962259  0.22560408    -0.20450
C3650       C  0.52063918  0.65589713  0.21300636    -0.07020
C3651       C  0.54767311  0.67548884  0.20962787     0.13850
C3652       C  0.54655985  0.70732527  0.21932168    -0.20510
C3653       C  0.51961593  0.72008339  0.23367289    -0.07030
C3654       C  0.49268015  0.70064494  0.23684043     0.13840
C3655       C  0.46304142  0.71239894  0.25209874    -0.23860
H3656       H  0.47200687  0.65554092  0.22802963     0.15120
H3657       H  0.56709838  0.72227784  0.21616480     0.15150
C3658       C  0.57762424  0.66330433  0.19552041    -0.23810
H3659       H  0.44388049  0.69449084  0.25179759     0.05360
H3660       H  0.45454576  0.73381654  0.23958090     0.08590
H3661       H  0.46772445  0.71789159  0.27710710     0.08590
H3662       H  0.57285380  0.65372045  0.17180025     0.08570
H3663       H  0.58758028  0.64460911  0.21102023     0.08570
H3664       H  0.59568541  0.68220651  0.19288085     0.05350
C3665       C  0.41441283  0.57098552  0.35391103    -0.20450
C3666       C  0.40624692  0.58064006  0.32359889    -0.07020
C3667       C  0.37716444  0.59511842  0.31879330     0.13850
C3668       C  0.35283624  0.58859566  0.34063154    -0.20510
C3669       C  0.35930235  0.57021804  0.36776223    -0.07030
C3670       C  0.39119405  0.56465936  0.37601013     0.13840
C3671       C  0.40138642  0.55015893  0.40693147    -0.23860
H3672       H  0.43829432  0.56339652  0.35855866     0.15120
H3673       H  0.32929139  0.59723612  0.33641709     0.15150
C3674       C  0.37391319  0.61992985  0.29355727    -0.23810
H3675       H  0.42722043  0.55206281  0.41034400     0.05360
H3676       H  0.39558954  0.52477499  0.40690879     0.08590
H3677       H  0.39011852  0.56216082  0.42694883     0.08590
H3678       H  0.39130704  0.63903358  0.29774758     0.08570
H3679       H  0.35019536  0.63064730  0.29387627     0.08570
H3680       H  0.37891806  0.60997479  0.27023998     0.05350
C3681       C  0.47635284  0.66185851  0.31787289    -0.20450
C3682       C  0.50520419  0.65182309  0.30581378    -0.07020
C3683       C  0.53331402  0.66703073  0.31487694     0.13850
C3684       C  0.53242687  0.68753696  0.34010774    -0.20510
C3685       C  0.50422466  0.69307378  0.35616231    -0.07030
C3686       C  0.47546858  0.68284908  0.34295250     0.13840
C3687       C  0.44411886  0.69197470  0.35632066    -0.23860
H3688       H  0.45473299  0.65095610  0.30986872     0.15120
H3689       H  0.55421619  0.69760609  0.34870652     0.15150
C3690       C  0.56449678  0.66056377  0.29924498    -0.23810
H3691       H  0.42426503  0.68079324  0.34361698     0.05360
H3692       H  0.44126933  0.71792040  0.35444411     0.08590
H3693       H  0.44282383  0.68435193  0.38128961     0.08590
H3694       H  0.56247941  0.66436351  0.27343177     0.08570
H3695       H  0.57226803  0.63620857  0.30415834     0.08570
H3696       H  0.58335307  0.67633984  0.30802716     0.05350
C3697       C  0.62783036  0.48360674  0.40196704    -0.20450
C3698       C  0.65912917  0.47961864  0.39251934    -0.07020
C3699       C  0.66576500  0.46971270  0.36157120     0.13850
C3700       C  0.64117162  0.46761264  0.33975368    -0.20510
C3701       C  0.61037965  0.47506594  0.34851015    -0.07030
C3702       C  0.60327332  0.48103113  0.38040961     0.13840
C3703       C  0.57016230  0.48611024  0.39204415    -0.23860
H3704       H  0.62260936  0.49007550  0.42605436     0.15120
H3705       H  0.64640391  0.46292775  0.31523598     0.15150
C3706       C  0.69880676  0.46365657  0.35086579    -0.23810
H3707       H  0.56488232  0.46936073  0.41176274     0.05360
H3708       H  0.55227541  0.48209519  0.37354482     0.08590
H3709       H  0.56780669  0.51053517  0.40067094     0.08590
H3710       H  0.70843935  0.44347177  0.36455138     0.08570
H3711       H  0.71351691  0.48493383  0.35464735     0.08570
H3712       H  0.69988787  0.45779281  0.32545979     0.05350
C3713       C  0.54233511  0.27143059  0.64886466    -0.20450
C3714       C  0.51478785  0.26089054  0.63362221    -0.07020
C3715       C  0.48584591  0.26380446  0.65022289     0.13850
C3716       C  0.48547934  0.27723708  0.68042589    -0.20510
C3717       C  0.51282568  0.28840645  0.69514786    -0.07030
C3718       C  0.54178494  0.28483939  0.67907141     0.13840
C3719       C  0.57282177  0.29429468  0.69314039    -0.23860
H3720       H  0.56480983  0.26969773  0.63691714     0.15120
H3721       H  0.46337308  0.27892469  0.69276597     0.15150
C3722       C  0.45484164  0.25364195  0.63644179    -0.23810
H3723       H  0.58863612  0.27359884  0.69405365     0.05360
H3724       H  0.57056485  0.30309663  0.71734930     0.08590
H3725       H  0.58395032  0.31306809  0.67828304     0.08590
H3726       H  0.45552224  0.22816218  0.63103763     0.08570
H3727       H  0.44976292  0.26772499  0.61479172     0.08570
H3728       H  0.43497322  0.25718589  0.65304941     0.05350
C3729       C  0.47273309  0.25957705  0.33911404    -0.20450
C3730       C  0.50011851  0.24783757  0.35374593    -0.07020
C3731       C  0.52738503  0.24500028  0.33452402     0.13850
C3732       C  0.52656049  0.25480403  0.30239167    -0.20510
C3733       C  0.49962680  0.26827144  0.28849500    -0.07030
C3734       C  0.47242822  0.27082033  0.30763017     0.13840
C3735       C  0.44328241  0.28716072  0.29611067    -0.23860
H3736       H  0.45157244  0.26217754  0.35306370     0.15120
H3737       H  0.54754389  0.25258181  0.28817997     0.15150
C3738       C  0.55764887  0.23200200  0.34744908    -0.23810
H3739       H  0.42345641  0.28450725  0.31308426     0.05360
H3740       H  0.43543303  0.27762559  0.27340563     0.08590
H3741       H  0.44823528  0.31269803  0.29350076     0.08590
H3742       H  0.55334550  0.20839817  0.35835991     0.08570
H3743       H  0.56754890  0.24821692  0.36514310     0.08570
H3744       H  0.57567436  0.22939377  0.32867596     0.05350
C3745       C  0.35113970  0.25252903  0.45797927    -0.20450
C3746       C  0.36628449  0.25157266  0.48739718    -0.07020
C3747       C  0.34962187  0.26410261  0.51355646     0.13850
C3748       C  0.31976055  0.27828310  0.50896832    -0.20510
C3749       C  0.30530636  0.28004024  0.47917607    -0.07030
C3750       C  0.32155658  0.26640638  0.45349383     0.13840
C3751       C  0.30909818  0.26624960  0.42048263    -0.23860
H3752       H  0.36294249  0.24308825  0.43754576     0.15120
H3753       H  0.30722014  0.28757870  0.52901962     0.15150
C3754       C  0.36292486  0.26314564  0.54642586    -0.23810
H3755       H  0.32571156  0.27900788  0.40445385     0.05360
H3756       H  0.28627046  0.27782160  0.41872128     0.08590
H3757       H  0.30650527  0.24160589  0.41245749     0.08590
H3758       H  0.38476584  0.27750246  0.54750066     0.08570
H3759       H  0.36789526  0.23839466  0.55354155     0.08570
H3760       H  0.34623316  0.27283225  0.56390938     0.05350
C3761       C  0.66628805  0.24748844  0.52640599    -0.20450
C3762       C  0.64627908  0.26195780  0.50413514    -0.07020
C3763       C  0.66009105  0.28316187  0.48178339     0.13850
C3764       C  0.69270343  0.28871728  0.48163076    -0.20510
C3765       C  0.71309357  0.27284425  0.50230359    -0.07030
C3766       C  0.69945345  0.25246028  0.52572647     0.13840
C3767       C  0.71926481  0.23681294  0.55079031    -0.23860
H3768       H  0.65593191  0.23220477  0.54439442     0.15120
H3769       H  0.70261167  0.30491672  0.46418171     0.15150
C3770       C  0.64050705  0.30127791  0.45851633    -0.23810
H3771       H  0.70459516  0.22288478  0.56774814     0.05360
H3772       H  0.73221659  0.25476619  0.56430912     0.08590
H3773       H  0.73632503  0.22047214  0.54032569     0.08590
H3774       H  0.62496169  0.31701094  0.47180229     0.08570
H3775       H  0.62661879  0.28491865  0.44382709     0.08570
H3776       H  0.65500444  0.31634832  0.44238456     0.05350
C3777       C  0.45927782  0.35216914  0.34544679    -0.20450
C3778       C  0.48574835  0.33560303  0.35520253    -0.07020
C3779       C  0.51499121  0.34151916  0.33995259     0.13850
C3780       C  0.51833645  0.36799198  0.32032506    -0.20510
C3781       C  0.49323294  0.38866270  0.31587603    -0.07030
C3782       C  0.46252706  0.37885031  0.32580158     0.13840
C3783       C  0.43309430  0.39662691  0.31724301    -0.23860
H3784       H  0.43672112  0.34680573  0.35635040     0.15120
H3785       H  0.54145692  0.37394059  0.31104639     0.15150
C3786       C  0.54406702  0.32261145  0.34698798    -0.23810
H3787       H  0.41155791  0.38304093  0.32382491     0.05360
H3788       H  0.43237004  0.40098951  0.29140837     0.08590
H3789       H  0.43203087  0.41917340  0.33001496     0.08590
H3790       H  0.53929488  0.30250942  0.36332207     0.08570
H3791       H  0.56218010  0.33797339  0.35775684     0.08570
H3792       H  0.55366703  0.31313680  0.32479335     0.05350
C3793       C  0.36207378  0.34768707  0.50155273    -0.20450
C3794       C  0.38198136  0.34553691  0.47501622    -0.07020
C3795       C  0.38521990  0.37168488  0.45427626     0.13850
C3796       C  0.36864579  0.39879871  0.46087930    -0.20510
C3797       C  0.34823271  0.40115450  0.48713551    -0.07030
C3798       C  0.34496421  0.37500247  0.50783711     0.13840
C3799       C  0.32444818  0.37566411  0.53681314    -0.23860
H3800       H  0.36089144  0.32825802  0.51832228     0.15120
H3801       H  0.37236778  0.41862334  0.44482126     0.15150
C3802       C  0.40696653  0.37380148  0.42592150    -0.23810
H3803       H  0.32458140  0.35278848  0.54993236     0.05360
H3804       H  0.29985827  0.38058670  0.53000657     0.08590
H3805       H  0.33298683  0.39416144  0.55294576     0.08590
H3806       H  0.41976130  0.35226652  0.42023528     0.08570
H3807       H  0.42478982  0.39262247  0.42968247     0.08570
H3808       H  0.39307672  0.38017259  0.40465471     0.05350
C3809       C  0.48301944  0.36855562  0.62835153    -0.20450
C3810       C  0.51214934  0.35922462  0.61586124    -0.07020
C3811       C  0.54025053  0.37037041  0.62955791     0.13850
C3812       C  0.53823121  0.39380261  0.65215156    -0.20510
C3813       C  0.50918396  0.40724446  0.66004363    -0.07030
C3814       C  0.48105625  0.39319345  0.64958585     0.13840
C3815       C  0.44905424  0.40565356  0.65808742    -0.23860
H3816       H  0.46143343  0.35855635  0.61922176     0.15120
H3817       H  0.55973331  0.40367044  0.66163486     0.15150
C3818       C  0.57239304  0.35985627  0.61906766    -0.23810
H3819       H  0.42982369  0.39180876  0.64716952     0.05360
H3820       H  0.44687608  0.43043387  0.64964663     0.08590
H3821       H  0.44555607  0.40439812  0.68398349     0.08590
H3822       H  0.57614075  0.36609192  0.59379339     0.08570
H3823       H  0.57462834  0.33402185  0.62272385     0.08570
H3824       H  0.59145977  0.37134022  0.63264720     0.05350
C3825       C  0.63708566  0.36690834  0.52063725    -0.20450
C3826       C  0.61099616  0.37439387  0.50190013    -0.07020
C3827       C  0.61433508  0.39701782  0.47686449     0.13850
C3828       C  0.64395782  0.40974106  0.47046550    -0.20510
C3829       C  0.66913634  0.40343035  0.49035140    -0.07030
C3830       C  0.66580412  0.38197764  0.51575801     0.13840
C3831       C  0.69170312  0.37556844  0.53888663    -0.23860
H3832       H  0.63499843  0.34987375  0.53989160     0.15120
H3833       H  0.64665437  0.42771280  0.45210384     0.15150
C3834       C  0.58720465  0.40995349  0.45788014    -0.23810
H3835       H  0.69621159  0.34998533  0.53929676     0.05360
H3836       H  0.68432552  0.38288027  0.56279716     0.08590
H3837       H  0.71383986  0.38808672  0.53256867     0.08590
H3838       H  0.56958067  0.42041516  0.47390370     0.08570
H3839       H  0.57621497  0.39139686  0.44364936     0.08570
H3840       H  0.59483117  0.42883468  0.44104825     0.05350
loop_ 
_geom_bond_atom_site_label_1 
_geom_bond_atom_site_label_2 
_geom_bond_distance 
_geom_bond_site_symmetry_2 
_ccdc_geom_bond_type 
O1          Zr13   2.396       .  S
O1            C3   1.271       .  A
O2          Zr39   2.409       .  S
O2            C3   1.283       .  A
C3         C3826   1.468       .  S
O4          Zr16   2.397       .  S
O4            C6   1.270       .  A
O5          Zr40   2.417       .  S
O5            C6   1.278       .  A
C6         C3794   1.464       .  S
O7          Zr16   2.423       .  S
O7            C9   1.285       .  A
O8          Zr39   2.406       .  S
O8            C9   1.282       .  A
C9         C3810   1.472       .  S
O10         Zr13   2.368       .  S
O10          C12   1.274       .  A
O11         Zr40   2.446       .  S
O11          C12   1.289       .  A
C12        C3778   1.463       .  S
Zr13         O14   2.436       .  S
Zr13         O15   2.437       .  S
Zr13         O19   2.355       .  S
Zr13         O20   2.342       .  S
Zr13         O43   2.352       .  S
Zr13         O45   2.347       .  S
O14          H57   0.990       .  S
O15          H56   0.990       .  S
O15          H60   0.987       .  S
Zr16         O17   2.442       .  S
Zr16         O18   2.434       .  S
Zr16         O20   2.374       .  S
Zr16         O19   2.347       .  S
Zr16         O44   2.356       .  S
Zr16         O46   2.356       .  S
O17          H58   0.988       .  S
O17          H61   0.990       .  S
O18          H51   0.990       .  S
O19         Zr39   2.391       .  S
O20         Zr40   2.408       .  S
O20          H47   0.964       .  S
O21         Zr33   2.513       .  S
O21          C23   1.299       .  A
O22         Zr40   2.422       .  S
O22          C23   1.286       .  A
C23        C3730   1.521       .  S
O24         Zr36   2.512       .  S
O24          C26   1.300       .  A
O25         Zr39   2.411       .  S
O25          C26   1.284       .  A
C26        C3714   1.514       .  S
O27         Zr36   2.515       .  S
O27          C29   1.299       .  A
O28         Zr40   2.425       .  S
O28          C29   1.286       .  A
C29        C3746   1.520       .  S
O30         Zr33   2.516       .  S
O30          C32   1.301       .  A
O31         Zr39   2.449       .  S
O31          C32   1.290       .  A
C32        C3762   1.510       .  S
Zr33         O34   2.438       .  S
Zr33         O35   2.434       .  S
Zr33         O41   2.413       .  S
Zr33         O42   2.405       .  S
Zr33         O45   2.376       .  S
Zr33         O43   2.360       .  S
O34          H54   0.989       .  S
O34          H59   0.989       .  S
O35          H55   0.990       .  S
Zr36         O37   2.434       .  S
Zr36         O38   2.437       .  S
Zr36         O42   2.406       .  S
Zr36         O41   2.412       .  S
Zr36         O46   2.352       .  S
Zr36         O44   2.380       .  S
O37          H53   0.990       .  S
O38          H52   0.990       .  S
O38          H62   0.990       .  S
Zr39         O42   2.393       .  S
Zr39         O44   2.391       .  S
Zr39         O45   2.379       .  S
Zr40         O41   2.410       .  S
Zr40         O43   2.363       .  S
Zr40         O46   2.382       .  S
O41          H49   0.966       .  S
O44          H48   0.961       .  S
O45          H50   0.958       .  S
O63         Zr75   2.416       .  S
O63          C65   1.283       .  A
O64        Zr101   2.420       .  S
O64          C65   1.284       .  A
C65        C3701   1.463       .  S
O66         Zr78   2.439       .  S
O66          C68   1.292       .  A
O67        Zr102   2.402       .  S
O67          C68   1.279       .  A
C68        C3666   1.462       .  S
O69         Zr78   2.407       .  S
O69          C71   1.281       .  A
O70        Zr101   2.453       .  S
O70          C71   1.293       .  A
C71        C3781   1.481       .  S
O72         Zr75   2.401       .  S
O72          C74   1.280       .  A
O73        Zr102   2.415       .  S
O73          C74   1.283       .  A
C74        C3682   1.459       .  S
Zr75         O76   2.434       .  S
Zr75         O77   2.437       .  S
Zr75         O81   2.362       .  S
Zr75         O82   2.330       .  S
Zr75        O105   2.365       .  S
Zr75        O107   2.326       .  S
O76         H119   0.990       .  S
O77         H118   0.989       .  S
O77         H122   0.990       .  S
Zr78         O79   2.435       .  S
Zr78         O80   2.434       .  S
Zr78         O82   2.348       .  S
Zr78         O81   2.368       .  S
Zr78        O106   2.361       .  S
Zr78        O108   2.332       .  S
O79         H120   0.990       .  S
O79         H123   0.990       .  S
O80         H113   0.990       .  S
O81        Zr101   2.389       .  S
O82        Zr102   2.392       .  S
O82         H109   0.964       .  S
O83         Zr95   2.528       .  S
O83          C85   1.301       .  A
O84        Zr102   2.400       .  S
O84          C85   1.279       .  A
C85        C3650   1.518       .  S
O86         Zr98   2.529       .  S
O86          C88   1.302       .  A
O87        Zr101   2.407       .  S
O87          C88   1.284       .  A
C88        C3637   1.517       .  S
O89         Zr98   2.500       .  S
O89          C91   1.298       .  A
O90        Zr102   2.445       .  S
O90          C91   1.290       .  A
C91        C3618   1.514       .  S
O92         Zr95   2.491       .  S
O92          C94   1.297       .  A
O93        Zr101   2.463       .  S
O93          C94   1.293       .  A
C94        C3602   1.496       .  S
Zr95         O96   2.438       .  S
Zr95         O97   2.434       .  S
Zr95        O103   2.406       .  S
Zr95        O104   2.412       .  S
Zr95        O107   2.394       .  S
Zr95        O105   2.358       .  S
O96         H116   0.989       .  S
O96         H121   0.989       .  S
O97         H117   0.990       .  S
Zr98         O99   2.434       .  S
Zr98        O100   2.438       .  S
Zr98        O104   2.397       .  S
Zr98        O103   2.406       .  S
Zr98        O108   2.368       .  S
Zr98        O106   2.355       .  S
O99         H115   0.990       .  S
O100        H114   0.990       .  S
O100        H124   0.990       .  S
Zr101       O104   2.404       .  S
Zr101       O106   2.388       .  S
Zr101       O107   2.388       .  S
Zr102       O103   2.404       .  S
Zr102       O105   2.382       .  S
Zr102       O108   2.360       .  S
O103        H111   0.966       .  S
O106        H110   0.959       .  S
O107        H112   0.961       .  S
O125       Zr137   2.451       .  S
O125        C127   1.291       .  A
O126       Zr163   2.390       .  S
O126        C127   1.279       .  A
C127       C3685   1.470       .  S
O128       Zr140   2.414       .  S
O128        C130   1.285       .  A
O129       Zr164   2.373       .  S
O129        C130   1.275       .  A
C130       C3570   1.453       .  S
O131       Zr140   2.377       .  S
O131        C133   1.275       .  A
O132       Zr163   2.419       .  S
O132        C133   1.284       .  A
C133       C3557   1.449       .  S
O134       Zr137   2.390       .  S
O134        C136   1.279       .  A
O135       Zr164   2.408       .  S
O135        C136   1.281       .  A
C136       C3586   1.435       .  S
Zr137       O138   2.435       .  S
Zr137       O139   2.436       .  S
Zr137       O143   2.345       .  S
Zr137       O144   2.363       .  S
Zr137       O167   2.375       .  S
Zr137       O169   2.330       .  S
O138        H181   0.990       .  S
O139        H180   0.990       .  S
O139        H184   0.990       .  S
Zr140       O141   2.437       .  S
Zr140       O142   2.433       .  S
Zr140       O144   2.329       .  S
Zr140       O143   2.372       .  S
Zr140       O168   2.361       .  S
Zr140       O170   2.340       .  S
O141        H182   0.990       .  S
O141        H185   0.990       .  S
O142        H175   0.990       .  S
O143       Zr163   2.379       .  S
O144       Zr164   2.387       .  S
O144        H171   0.964       .  S
O145       Zr157   2.519       .  S
O145        C147   1.300       .  A
O146       Zr164   2.402       .  S
O146        C147   1.276       .  A
C147       C3490   1.519       .  S
O148       Zr160   2.538       .  S
O148        C150   1.303       .  A
O149       Zr163   2.408       .  S
O149        C150   1.278       .  A
C150       C3522   1.506       .  S
O151       Zr160   2.533       .  S
O151        C153   1.303       .  A
O152       Zr164   2.427       .  S
O152        C153   1.286       .  A
C153       C3506   1.527       .  S
O154       Zr157   2.505       .  S
O154        C156   1.300       .  A
O155       Zr163   2.421       .  S
O155        C156   1.285       .  A
C156       C3538   1.500       .  S
Zr157       O158   2.436       .  S
Zr157       O159   2.436       .  S
Zr157       O165   2.403       .  S
Zr157       O166   2.412       .  S
Zr157       O169   2.368       .  S
Zr157       O167   2.361       .  S
O158        H178   0.990       .  S
O158        H183   0.990       .  S
O159        H179   0.990       .  S
Zr160       O161   2.434       .  S
Zr160       O162   2.436       .  S
Zr160       O166   2.407       .  S
Zr160       O165   2.421       .  S
Zr160       O170   2.360       .  S
Zr160       O168   2.378       .  S
O161        H177   0.990       .  S
O162        H176   0.990       .  S
O162        H186   0.990       .  S
Zr163       O166   2.383       .  S
Zr163       O168   2.383       .  S
Zr163       O169   2.373       .  S
Zr164       O165   2.388       .  S
Zr164       O167   2.372       .  S
Zr164       O170   2.367       .  S
O165        H173   0.966       .  S
O168        H172   0.963       .  S
O169        H174   0.960       .  S
O187       Zr199   2.384       .  S
O187        C189   1.278       .  A
O188       Zr225   2.408       .  S
O188        C189   1.282       .  A
C189       C3829   1.435       .  S
O190       Zr202   2.383       .  S
O190        C192   1.277       .  A
O191       Zr226   2.402       .  S
O191        C192   1.278       .  A
C192       C3589   1.434       .  S
O193       Zr202   2.435       .  S
O193        C195   1.287       .  A
O194       Zr225   2.413       .  S
O194        C195   1.282       .  A
C195       C3698   1.472       .  S
O196       Zr199   2.424       .  S
O196        C198   1.287       .  A
O197       Zr226   2.396       .  S
O197        C198   1.279       .  A
C198       C3477   1.464       .  S
Zr199       O200   2.435       .  S
Zr199       O201   2.436       .  S
Zr199       O205   2.360       .  S
Zr199       O206   2.338       .  S
Zr199       O229   2.331       .  S
Zr199       O231   2.359       .  S
O200        H243   0.990       .  S
O201        H242   0.990       .  S
O201        H246   0.990       .  S
Zr202       O203   2.438       .  S
Zr202       O204   2.435       .  S
Zr202       O206   2.369       .  S
Zr202       O205   2.343       .  S
Zr202       O230   2.338       .  S
Zr202       O232   2.371       .  S
O203        H244   0.990       .  S
O203        H247   0.990       .  S
O204        H237   0.990       .  S
O205       Zr225   2.376       .  S
O206       Zr226   2.384       .  S
O206        H233   0.966       .  S
O207       Zr219   2.517       .  S
O207        C209   1.302       .  A
O208       Zr226   2.414       .  S
O208        C209   1.280       .  A
C209       C3426   1.513       .  S
O210       Zr222   2.489       .  S
O210        C212   1.299       .  A
O211       Zr225   2.429       .  S
O211        C212   1.286       .  A
C212       C3458   1.505       .  S
O213       Zr222   2.536       .  S
O213        C215   1.303       .  A
O214       Zr226   2.393       .  S
O214        C215   1.273       .  A
C215       C3413   1.517       .  S
O216       Zr219   2.514       .  S
O216        C218   1.300       .  A
O217       Zr225   2.402       .  S
O217        C218   1.280       .  A
C218       C3442   1.505       .  S
Zr219       O220   2.435       .  S
Zr219       O221   2.435       .  S
Zr219       O227   2.407       .  S
Zr219       O228   2.405       .  S
Zr219       O231   2.373       .  S
Zr219       O229   2.358       .  S
O220        H240   0.990       .  S
O220        H245   0.990       .  S
O221        H241   0.990       .  S
Zr222       O223   2.434       .  S
Zr222       O224   2.437       .  S
Zr222       O228   2.413       .  S
Zr222       O227   2.398       .  S
Zr222       O232   2.357       .  S
Zr222       O230   2.396       .  S
O223        H239   0.990       .  S
O224        H238   0.990       .  S
O224        H248   0.990       .  S
Zr225       O228   2.388       .  S
Zr225       O230   2.381       .  S
Zr225       O231   2.389       .  S
Zr226       O227   2.389       .  S
Zr226       O229   2.361       .  S
Zr226       O232   2.376       .  S
O227        H235   0.966       .  S
O230        H234   0.964       .  S
O231        H236   0.963       .  S
O249       Zr261   2.436       .  S
O249        C251   1.287       .  A
O250       Zr287   2.384       .  S
O250        C251   1.279       .  A
C251       C3394   1.452       .  S
O252       Zr264   2.390       .  S
O252        C254   1.280       .  A
O253       Zr288   2.420       .  S
O253        C254   1.283       .  A
C254       C3474   1.458       .  S
O255       Zr264   2.408       .  S
O255        C257   1.283       .  A
O256       Zr287   2.415       .  S
O256        C257   1.283       .  A
C257       C3813   1.467       .  S
O258       Zr261   2.427       .  S
O258        C260   1.287       .  A
O259       Zr288   2.380       .  S
O259        C260   1.277       .  A
C260       C3573   1.452       .  S
Zr261       O262   2.434       .  S
Zr261       O263   2.436       .  S
Zr261       O267   2.358       .  S
Zr261       O268   2.351       .  S
Zr261       O291   2.357       .  S
Zr261       O293   2.348       .  S
O262        H305   0.990       .  S
O263        H304   0.990       .  S
O263        H308   0.990       .  S
Zr264       O265   2.435       .  S
Zr264       O266   2.432       .  S
Zr264       O268   2.353       .  S
Zr264       O267   2.337       .  S
Zr264       O292   2.345       .  S
Zr264       O294   2.356       .  S
O265        H306   0.990       .  S
O265        H309   0.990       .  S
O266        H299   0.990       .  S
O267       Zr287   2.385       .  S
O268       Zr288   2.390       .  S
O268        H295   0.966       .  S
O269       Zr281   2.519       .  S
O269        C271   1.300       .  A
O270       Zr288   2.417       .  S
O270        C271   1.285       .  A
C271       C3330   1.523       .  S
O272       Zr284   2.506       .  S
O272        C274   1.297       .  A
O273       Zr287   2.417       .  S
O273        C274   1.285       .  A
C274       C3378   1.518       .  S
O275       Zr284   2.506       .  S
O275        C277   1.297       .  A
O276       Zr288   2.422       .  S
O276        C277   1.284       .  A
C277       C3349   1.513       .  S
O278       Zr281   2.511       .  S
O278        C280   1.301       .  A
O279       Zr287   2.431       .  S
O279        C280   1.286       .  A
C280       C3362   1.502       .  S
Zr281       O282   2.437       .  S
Zr281       O283   2.434       .  S
Zr281       O289   2.417       .  S
Zr281       O290   2.408       .  S
Zr281       O293   2.386       .  S
Zr281       O291   2.361       .  S
O282        H302   0.989       .  S
O282        H307   0.989       .  S
O283        H303   0.990       .  S
Zr284       O285   2.435       .  S
Zr284       O286   2.437       .  S
Zr284       O290   2.408       .  S
Zr284       O289   2.404       .  S
Zr284       O294   2.365       .  S
Zr284       O292   2.372       .  S
O285        H301   0.990       .  S
O286        H300   0.990       .  S
O286        H310   0.990       .  S
Zr287       O290   2.386       .  S
Zr287       O292   2.374       .  S
Zr287       O293   2.390       .  S
Zr288       O289   2.394       .  S
Zr288       O291   2.377       .  S
Zr288       O294   2.365       .  S
O289        H297   0.966       .  S
O292        H296   0.962       .  S
O293        H298   0.963       .  S
O311       Zr323   2.359       .  S
O311        C313   1.273       .  A
O312       Zr349   2.456       .  S
O312        C313   1.290       .  A
C313       C3797   1.485       .  S
O314       Zr326   2.392       .  S
O314        C316   1.280       .  A
O315       Zr350   2.402       .  S
O315        C316   1.281       .  A
C316       C3554   1.446       .  S
O317       Zr326   2.410       .  S
O317        C319   1.282       .  A
O318       Zr349   2.412       .  S
O318        C319   1.283       .  A
C319       C3397   1.457       .  S
O320       Zr323   2.409       .  S
O320        C322   1.282       .  A
O321       Zr350   2.431       .  S
O321        C322   1.286       .  A
C322       C3669   1.468       .  S
Zr323       O324   2.431       .  S
Zr323       O325   2.435       .  S
Zr323       O329   2.352       .  S
Zr323       O330   2.340       .  S
Zr323       O353   2.331       .  S
Zr323       O355   2.349       .  S
O324        H367   0.990       .  S
O325        H366   0.990       .  S
O325        H370   0.990       .  S
Zr326       O327   2.437       .  S
Zr326       O328   2.436       .  S
Zr326       O330   2.345       .  S
Zr326       O329   2.348       .  S
Zr326       O354   2.332       .  S
Zr326       O356   2.348       .  S
O327        H368   0.990       .  S
O327        H371   0.990       .  S
O328        H361   0.990       .  S
O329       Zr349   2.377       .  S
O330       Zr350   2.383       .  S
O330        H357   0.963       .  S
O331       Zr343   2.493       .  S
O331        C333   1.298       .  A
O332       Zr350   2.425       .  S
O332        C333   1.285       .  A
C333       C3282   1.497       .  S
O334       Zr346   2.487       .  S
O334        C336   1.298       .  A
O335       Zr349   2.442       .  S
O335        C336   1.289       .  A
C336       C3266   1.509       .  S
O337       Zr346   2.534       .  S
O337        C339   1.303       .  A
O338       Zr350   2.410       .  S
O338        C339   1.282       .  A
C339       C3298   1.523       .  S
O340       Zr343   2.500       .  S
O340        C342   1.299       .  A
O341       Zr349   2.417       .  S
O341        C342   1.284       .  A
C342       C3314   1.499       .  S
Zr343       O344   2.435       .  S
Zr343       O345   2.436       .  S
Zr343       O351   2.403       .  S
Zr343       O352   2.396       .  S
Zr343       O355   2.371       .  S
Zr343       O353   2.367       .  S
O344        H364   0.990       .  S
O344        H369   0.990       .  S
O345        H365   0.990       .  S
Zr346       O347   2.434       .  S
Zr346       O348   2.437       .  S
Zr346       O352   2.411       .  S
Zr346       O351   2.401       .  S
Zr346       O356   2.348       .  S
Zr346       O354   2.396       .  S
O347        H363   0.990       .  S
O348        H362   0.990       .  S
O348        H372   0.990       .  S
Zr349       O352   2.402       .  S
Zr349       O354   2.395       .  S
Zr349       O355   2.386       .  S
Zr350       O351   2.403       .  S
Zr350       O353   2.362       .  S
Zr350       O356   2.379       .  S
O351        H359   0.966       .  S
O354        H358   0.964       .  S
O355        H360   0.962       .  S
O373       Zr385   2.424   1_556  S
O373        C375   1.279       .  A
O374       Zr411   2.416       .  S
O374        C375   1.279       .  A
C375       C3250   1.467       .  S
O376       Zr388   2.407       .  S
O376        C378   1.271       .  A
O377       Zr412   2.412       .  S
O377        C378   1.279   1_554  A
C378       C3234   1.454       .  S
O379       Zr388   2.393       .  S
O379        C381   1.275       .  A
O380       Zr411   2.431       .  S
O380        C381   1.284       .  A
C381       C3202   1.449       .  S
O382       Zr385   2.355       .  S
O382        C384   1.268       .  A
O383       Zr412   2.445       .  S
O383        C384   1.286       .  A
C384       C3218   1.439       .  S
Zr385       O386   2.437       .  S
Zr385       O387   2.441       .  S
Zr385       O391   2.351   1_554  S
Zr385       O392   2.379       .  S
Zr385       O415   2.367       .  S
Zr385       O417   2.330       .  S
O386        H429   0.990       .  S
O387        H428   0.987       .  S
O387        H432   0.990       .  S
Zr388       O389   2.439       .  S
Zr388       O390   2.434       .  S
Zr388       O392   2.335   1_556  S
Zr388       O391   2.361       .  S
Zr388       O416   2.333       .  S
Zr388       O418   2.353       .  S
O389        H430   0.990       .  S
O389        H433   0.988       .  S
O390        H423   0.990       .  S
O391       Zr411   2.390       .  S
O392       Zr412   2.400       .  S
O392        H419   0.962       .  S
O393       Zr405   2.526       .  S
O393        C395   1.303       .  A
O394       Zr412   2.421       .  S
O394        C395   1.288       .  A
C395       C3170   1.525       .  S
O396       Zr408   2.524       .  S
O396        C398   1.304       .  A
O397       Zr411   2.435       .  S
O397        C398   1.291       .  A
C398       C3186   1.512       .  S
O399       Zr408   2.540       .  S
O399        C401   1.307       .  A
O400       Zr412   2.406       .  S
O400        C401   1.281   1_554  A
C401       C3138   1.523       .  S
O402       Zr405   2.495       .  S
O402        C404   1.298   1_554  A
O403       Zr411   2.440       .  S
O403        C404   1.291       .  A
C404       C3154   1.514       .  S
Zr405       O406   2.434       .  S
Zr405       O407   2.434       .  S
Zr405       O413   2.393       .  S
Zr405       O414   2.410   1_554  S
Zr405       O417   2.382       .  S
Zr405       O415   2.365       .  S
O406        H426   0.990       .  S
O406        H431   0.990       .  S
O407        H427   0.990       .  S
Zr408       O409   2.433       .  S
Zr408       O410   2.437       .  S
Zr408       O414   2.409       .  S
Zr408       O413   2.410   1_556  S
Zr408       O418   2.347       .  S
Zr408       O416   2.384       .  S
O409        H425   0.990       .  S
O410        H424   0.990       .  S
O410        H434   0.990       .  S
Zr411       O414   2.404       .  S
Zr411       O416   2.393       .  S
Zr411       O417   2.394   1_556  S
Zr412       O413   2.402       .  S
Zr412       O415   2.370       .  S
Zr412       O418   2.385   1_554  S
O413        H421   0.966       .  S
O416        H420   0.957       .  S
O417        H422   0.962       .  S
O435       Zr447   2.454       .  S
O435        C437   1.290   1_455  A
O436       Zr473   2.342       .  S
O436        C437   1.271       .  A
C437       C3106   1.444       .  S
O438       Zr450   2.400   1_455  S
O438        C440   1.281       .  A
O439       Zr474   2.424       .  S
O439        C440   1.285       .  A
C440       C3125   1.464       .  S
O441       Zr450   2.391       .  S
O441        C443   1.269       .  A
O442       Zr473   2.426       .  S
O442        C443   1.285       .  A
C443       C3205   1.476       .  S
O444       Zr447   2.395       .  S
O444        C446   1.272       .  A
O445       Zr474   2.430       .  S
O445        C446   1.283       .  A
C446       C3090   1.476       .  S
Zr447       O448   2.435       .  S
Zr447       O449   2.436       .  S
Zr447       O453   2.337       .  S
Zr447       O454   2.373       .  S
Zr447       O477   2.367       .  S
Zr447       O479   2.338       .  S
O448        H491   0.990       .  S
O449        H490   0.990       .  S
O449        H494   0.990       .  S
Zr450       O451   2.441   1_655  S
Zr450       O452   2.438       .  S
Zr450       O454   2.338   1_655  S
Zr450       O453   2.359   1_655  S
Zr450       O478   2.375       .  S
Zr450       O480   2.354   1_655  S
O451        H492   0.989       .  S
O451        H495   0.990       .  S
O452        H485   0.990       .  S
O453       Zr473   2.387   1_455  S
O454       Zr474   2.400       .  S
O454        H481   0.966       .  S
O455       Zr467   2.529       .  S
O455        C457   1.302       .  A
O456       Zr474   2.410       .  S
O456        C457   1.282       .  A
C457       C3026   1.524       .  S
O458       Zr470   2.525       .  S
O458        C460   1.302       .  A
O459       Zr473   2.405       .  S
O459        C460   1.281       .  A
C460       C3074   1.516       .  S
O461       Zr470   2.482   1_455  S
O461        C463   1.294       .  A
O462       Zr474   2.443       .  S
O462        C463   1.291       .  A
C463       C3061   1.511       .  S
O464       Zr467   2.506       .  S
O464        C466   1.302   1_455  A
O465       Zr473   2.443       .  S
O465        C466   1.288       .  A
C466       C3042   1.520       .  S
Zr467       O468   2.438       .  S
Zr467       O469   2.435       .  S
Zr467       O475   2.411       .  S
Zr467       O476   2.411   1_455  S
Zr467       O479   2.388       .  S
Zr467       O477   2.345       .  S
O468        H488   0.989       .  S
O468        H493   0.989       .  S
O469        H489   0.990       .  S
Zr470       O471   2.434       .  S
Zr470       O472   2.438       .  S
Zr470       O476   2.393       .  S
Zr470       O475   2.411   1_655  S
Zr470       O480   2.376   1_655  S
Zr470       O478   2.367       .  S
O471        H487   0.990       .  S
O472        H486   0.990       .  S
O472        H496   0.990       .  S
Zr473       O476   2.384       .  S
Zr473       O478   2.386       .  S
Zr473       O479   2.388   1_655  S
Zr474       O475   2.408       .  S
Zr474       O477   2.381       .  S
Zr474       O480   2.368       .  S
O475        H483   0.966       .  S
O478        H482   0.964       .  S
O479        H484   0.961       .  S
O497       Zr509   2.415   1_556  S
O497        C499   1.282       .  A
O498       Zr535   2.433       .  S
O498        C499   1.289       .  A
C499       C2997   1.469       .  S
O500       Zr512   2.401       .  S
O500        C502   1.280       .  A
O501       Zr536   2.423       .  S
O501        C502   1.285   1_554  A
C502       C3010   1.470       .  S
O503       Zr512   2.392       .  S
O503        C505   1.280       .  A
O504       Zr535   2.429       .  S
O504        C505   1.285       .  A
C505       C3093   1.464       .  S
O506       Zr509   2.395       .  S
O506        C508   1.267       .  A
O507       Zr536   2.434       .  S
O507        C508   1.279       .  A
C508       C2978   1.459       .  S
Zr509       O510   2.433       .  S
Zr509       O511   2.437       .  S
Zr509       O515   2.361   1_554  S
Zr509       O516   2.366       .  S
Zr509       O539   2.378       .  S
Zr509       O541   2.350   1_554  S
O510        H553   0.990       .  S
O511        H552   0.990       .  S
O511        H556   0.990       .  S
Zr512       O513   2.435       .  S
Zr512       O514   2.435       .  S
Zr512       O516   2.341   1_556  S
Zr512       O515   2.365       .  S
Zr512       O540   2.348       .  S
Zr512       O542   2.361       .  S
O513        H554   0.990       .  S
O513        H557   0.990       .  S
O514        H547   0.990       .  S
O515       Zr535   2.391       .  S
O516       Zr536   2.405       .  S
O516        H543   0.966       .  S
O517       Zr529   2.500       .  S
O517        C519   1.296       .  A
O518       Zr536   2.404       .  S
O518        C519   1.285       .  A
C519       C2930   1.512       .  S
O520       Zr532   2.506       .  S
O520        C522   1.301       .  A
O521       Zr535   2.435       .  S
O521        C522   1.287       .  A
C522       C2914   1.520       .  S
O523       Zr532   2.515       .  S
O523        C525   1.301       .  A
O524       Zr536   2.407       .  S
O524        C525   1.280   1_554  A
C525       C2946   1.516       .  S
O526       Zr529   2.499   1_556  S
O526        C528   1.297       .  A
O527       Zr535   2.426       .  S
O527        C528   1.288       .  A
C528       C2962   1.513       .  S
Zr529       O530   2.433       .  S
Zr529       O531   2.436       .  S
Zr529       O537   2.395       .  S
Zr529       O538   2.399   1_554  S
Zr529       O541   2.378   1_554  S
Zr529       O539   2.368       .  S
O530        H550   0.990       .  S
O530        H555   0.990       .  S
O531        H551   0.990       .  S
Zr532       O533   2.434       .  S
Zr532       O534   2.437       .  S
Zr532       O538   2.405       .  S
Zr532       O537   2.394   1_556  S
Zr532       O542   2.363       .  S
Zr532       O540   2.372       .  S
O533        H549   0.990       .  S
O534        H548   0.990       .  S
O534        H558   0.990       .  S
Zr535       O538   2.399       .  S
Zr535       O540   2.386       .  S
Zr535       O541   2.386       .  S
Zr536       O537   2.403       .  S
Zr536       O539   2.380       .  S
Zr536       O542   2.368   1_554  S
O537        H545   0.966       .  S
O540        H544   0.961       .  S
O541        H546   0.958   1_556  S
O559       Zr571   2.417       .  S
O559        C561   1.284   1_455  A
O560       Zr597   2.417       .  S
O560        C561   1.283       .  A
C561       C2898   1.473       .  S
O562       Zr574   2.428   1_455  S
O562        C564   1.287       .  A
O563       Zr598   2.387       .  S
O563        C564   1.276       .  A
C564       C2885   1.468       .  S
O565       Zr574   2.402       .  S
O565        C567   1.278       .  A
O566       Zr597   2.420       .  S
O566        C567   1.280       .  A
C567       C3221   1.445       .  S
O568       Zr571   2.370       .  S
O568        C570   1.273       .  A
O569       Zr598   2.434       .  S
O569        C570   1.288       .  A
C570       C2981   1.449       .  S
Zr571       O572   2.436       .  S
Zr571       O573   2.434       .  S
Zr571       O577   2.335   1_455  S
Zr571       O578   2.368       .  S
Zr571       O601   2.358       .  S
Zr571       O603   2.326       .  S
O572        H615   0.991       .  S
O573        H614   0.990       .  S
O573        H618   0.990       .  S
Zr574       O575   2.437       .  S
Zr574       O576   2.433       .  S
Zr574       O578   2.332   1_655  S
Zr574       O577   2.354       .  S
Zr574       O602   2.354       .  S
Zr574       O604   2.330   1_655  S
O575        H616   0.990       .  S
O575        H619   0.990       .  S
O576        H609   0.990       .  S
O577       Zr597   2.387       .  S
O578       Zr598   2.382       .  S
O578        H605   0.965       .  S
O579       Zr591   2.510       .  S
O579        C581   1.301       .  A
O580       Zr598   2.420       .  S
O580        C581   1.283       .  A
C581       C2837   1.518       .  S
O582       Zr594   2.537       .  S
O582        C584   1.305       .  A
O583       Zr597   2.420       .  S
O583        C584   1.287       .  A
C584       C2818   1.526       .  S
O585       Zr594   2.508       .  S
O585        C587   1.301   1_655  A
O586       Zr598   2.435       .  S
O586        C587   1.287       .  A
C587       C2866   1.517       .  S
O588       Zr591   2.471       .  S
O588        C590   1.293       .  A
O589       Zr597   2.462       .  S
O589        C590   1.294   1_655  A
C590       C2853   1.501       .  S
Zr591       O592   2.439       .  S
Zr591       O593   2.435       .  S
Zr591       O599   2.398       .  S
Zr591       O600   2.410   1_455  S
Zr591       O603   2.400       .  S
Zr591       O601   2.362       .  S
O592        H612   0.989       .  S
O592        H617   0.989       .  S
O593        H613   0.990       .  S
Zr594       O595   2.433       .  S
Zr594       O596   2.438       .  S
Zr594       O600   2.401       .  S
Zr594       O599   2.416   1_655  S
Zr594       O604   2.366   1_655  S
Zr594       O602   2.362       .  S
O595        H611   0.990       .  S
O596        H610   0.990       .  S
O596        H620   0.990       .  S
Zr597       O600   2.401       .  S
Zr597       O602   2.401       .  S
Zr597       O603   2.386   1_655  S
Zr598       O599   2.406       .  S
Zr598       O601   2.375       .  S
Zr598       O604   2.376       .  S
O599        H607   0.966       .  S
O602        H606   0.959       .  S
O603        H608   0.962       .  S
O621       Zr633   2.375   1_556  S
O621        C623   1.277       .  A
O622       Zr659   2.423       .  S
O622        C623   1.282       .  A
C623       C3237   1.471       .  S
O624       Zr636   2.392       .  S
O624        C626   1.275       .  A
O625       Zr660   2.456       .  S
O625        C626   1.294   1_554  A
C626       C2994   1.484       .  S
O627       Zr636   2.414       .  S
O627        C629   1.283   1_455  A
O628       Zr659   2.380       .  S
O628        C629   1.276       .  A
C629       C3109   1.441       .  S
O630       Zr633   2.396   1_455  S
O630        C632   1.280       .  A
O631       Zr660   2.425       .  S
O631        C632   1.286       .  A
C632       C2882   1.466       .  S
Zr633       O634   2.434       .  S
Zr633       O635   2.437       .  S
Zr633       O639   2.349   1_554  S
Zr633       O640   2.351   1_654  S
Zr633       O663   2.334       .  S
Zr633       O665   2.348   1_554  S
O634        H677   0.990   1_554  S
O635        H676   0.990       .  S
O635        H680   0.990       .  S
Zr636       O637   2.435       .  S
Zr636       O638   2.433       .  S
Zr636       O640   2.351       .  S
Zr636       O639   2.339   1_455  S
Zr636       O664   2.328       .  S
Zr636       O666   2.358       .  S
O637        H678   0.990       .  S
O637        H681   0.990       .  S
O638        H671   0.991       .  S
O639       Zr659   2.395       .  S
O640       Zr660   2.388   1_556  S
O640        H667   0.966   1_556  S
O641       Zr653   2.502       .  S
O641        C643   1.301   1_655  A
O642       Zr660   2.433       .  S
O642        C643   1.287       .  A
C643       C2802   1.515       .  S
O644       Zr656   2.492       .  S
O644        C646   1.299   1_455  A
O645       Zr659   2.456       .  S
O645        C646   1.291       .  A
C646       C2770   1.510       .  S
O647       Zr656   2.511       .  S
O647        C649   1.298       .  A
O648       Zr660   2.399       .  S
O648        C649   1.280   1_554  A
C649       C2789   1.514       .  S
O650       Zr653   2.502   1_556  S
O650        C652   1.298       .  A
O651       Zr659   2.433       .  S
O651        C652   1.289       .  A
C652       C2754   1.516       .  S
Zr653       O654   2.435       .  S
Zr653       O655   2.436       .  S
Zr653       O661   2.403   1_654  S
Zr653       O662   2.405   1_554  S
Zr653       O665   2.380   1_554  S
Zr653       O663   2.359       .  S
O654        H674   0.990       .  S
O654        H679   0.990       .  S
O655        H675   0.990       .  S
Zr656       O657   2.434       .  S
Zr656       O658   2.437       .  S
Zr656       O662   2.410   1_455  S
Zr656       O661   2.399       .  S
Zr656       O666   2.359       .  S
Zr656       O664   2.383       .  S
O657        H673   0.990       .  S
O658        H672   0.990       .  S
O658        H682   0.990       .  S
Zr659       O662   2.395       .  S
Zr659       O664   2.382   1_655  S
Zr659       O665   2.387       .  S
Zr660       O661   2.409   1_554  S
Zr660       O663   2.366   1_455  S
Zr660       O666   2.373   1_554  S
O661        H669   0.966   1_556  S
O664        H668   0.961       .  S
O665        H670   0.963   1_556  S
O683       Zr695   2.425       .  S
O683        C685   1.286       .  A
O684       Zr721   2.430       .  S
O684        C685   1.287   1_554  A
C685       C3253   1.462       .  S
O686       Zr698   2.404       .  S
O686        C688   1.282   1_554  A
O687       Zr722   2.430       .  S
O687        C688   1.288       .  A
C688       C3013   1.469       .  S
O689       Zr698   2.447       .  S
O689        C691   1.290   1_455  A
O690       Zr721   2.402       .  S
O690        C691   1.281       .  A
C691       C2901   1.473       .  S
O692       Zr695   2.430   1_455  S
O692        C694   1.289       .  A
O693       Zr722   2.393       .  S
O693        C694   1.279       .  A
C694       C3122   1.463       .  S
Zr695       O696   2.435       .  S
Zr695       O697   2.435       .  S
Zr695       O701   2.350   1_656  S
Zr695       O702   2.358   1_655  S
Zr695       O725   2.344   1_655  S
Zr695       O727   2.359       .  S
O696        H739   0.990       .  S
O697        H738   0.990       .  S
O697        H742   0.990       .  S
Zr698       O699   2.438       .  S
Zr698       O700   2.435       .  S
Zr698       O702   2.359   1_554  S
Zr698       O701   2.346       .  S
Zr698       O726   2.337       .  S
Zr698       O728   2.367       .  S
O699        H740   0.990   1_554  S
O699        H743   0.990       .  S
O700        H733   0.990       .  S
O701       Zr721   2.383   1_455  S
O702       Zr722   2.394       .  S
O702        H729   0.966       .  S
O703       Zr715   2.499   1_455  S
O703        C705   1.297       .  A
O704       Zr722   2.444       .  S
O704        C705   1.291       .  A
C705       C2725   1.519       .  S
O706       Zr718   2.472       .  S
O706        C708   1.292       .  A
O707       Zr721   2.452       .  S
O707        C708   1.294   1_655  A
C708       C2741   1.504       .  S
O709       Zr718   2.507       .  S
O709        C711   1.295   1_554  A
O710       Zr722   2.405       .  S
O710        C711   1.280       .  A
C711       C2709   1.514       .  S
O712       Zr715   2.514       .  S
O712        C714   1.297   1_556  A
O713       Zr721   2.404       .  S
O713        C714   1.281       .  A
C714       C2690   1.516   1_554  S
Zr715       O716   2.435   1_655  S
Zr715       O717   2.436       .  S
Zr715       O723   2.406   1_655  S
Zr715       O724   2.401   1_656  S
Zr715       O727   2.366       .  S
Zr715       O725   2.365   1_655  S
O716        H736   0.990       .  S
O716        H741   0.990   1_455  S
O717        H737   0.990       .  S
Zr718       O719   2.434       .  S
Zr718       O720   2.437       .  S
Zr718       O724   2.405       .  S
Zr718       O723   2.401   1_554  S
Zr718       O728   2.355       .  S
Zr718       O726   2.402       .  S
O719        H735   0.990       .  S
O720        H734   0.990       .  S
O720        H744   0.990       .  S
Zr721       O724   2.390   1_655  S
Zr721       O726   2.384   1_655  S
Zr721       O727   2.389   1_554  S
Zr722       O723   2.397       .  S
Zr722       O725   2.367       .  S
Zr722       O728   2.370   1_556  S
O723        H731   0.966       .  S
O726        H730   0.963       .  S
O727        H732   0.961       .  S
O745       Zr757   2.384   1_556  S
O745        C747   1.266       .  A
O746       Zr783   2.403       .  S
O746        C747   1.273       .  A
C747       C2674   1.445       .  S
O748       Zr760   2.522       .  S
O748        C750   1.302       .  A
O749       Zr784   2.425       .  S
O749        C750   1.285       .  A
C750       C2594   1.510       .  S
O751       Zr760   2.532       .  S
O751        C753   1.306   1_554  A
O752       Zr783   2.433       .  S
O752        C753   1.286       .  A
C753       C2578   1.530       .  S
O754       Zr757   2.395       .  S
O754        C756   1.280       .  A
O755       Zr784   2.402       .  S
O755        C756   1.280       .  A
C756       C2642   1.459       .  S
Zr757       O758   2.437       .  S
Zr757       O759   2.437       .  S
Zr757       O763   2.357   1_554  S
Zr757       O764   2.336       .  S
Zr757       O787   2.352       .  S
Zr757       O789   2.358   1_554  S
O758        H801   0.989       .  S
O759        H800   0.988   1_554  S
O759        H804   0.989       .  S
Zr760       O761   2.438       .  S
Zr760       O762   2.435   1_554  S
Zr760       O764   2.378       .  S
Zr760       O763   2.347   1_554  S
Zr760       O788   2.412   1_554  S
Zr760       O790   2.412       .  S
O761        H802   0.990       .  S
O761        H805   0.990       .  S
O762        H795   0.990       .  S
O763       Zr783   2.373       .  S
O764       Zr784   2.383       .  S
O764        H791   0.960       .  S
O765       Zr777   2.413       .  S
O765        C767   1.283   1_556  A
O766       Zr784   2.415       .  S
O766        C767   1.283       .  A
C767       C2661   1.450       .  S
O768       Zr780   2.512       .  S
O768        C770   1.299       .  A
O769       Zr783   2.423       .  S
O769        C770   1.287       .  A
C770       C2610   1.520       .  S
O771       Zr780   2.509       .  S
O771        C773   1.300       .  A
O772       Zr784   2.434       .  S
O772        C773   1.289   1_554  A
C773       C2562   1.506       .  S
O774       Zr777   2.425       .  S
O774        C776   1.287       .  A
O775       Zr783   2.396       .  S
O775        C776   1.279       .  A
C776       C2626   1.461       .  S
Zr777       O778   2.437       .  S
Zr777       O779   2.434       .  S
Zr777       O785   2.344       .  S
Zr777       O786   2.353       .  S
Zr777       O789   2.335       .  S
Zr777       O787   2.366   1_556  S
O778        H798   0.990       .  S
O778        H803   0.990       .  S
O779        H799   0.990       .  S
Zr780       O781   2.436       .  S
Zr780       O782   2.435       .  S
Zr780       O786   2.360       .  S
Zr780       O785   2.382       .  S
Zr780       O790   2.407   1_556  S
Zr780       O788   2.414       .  S
O781        H797   0.990       .  S
O782        H796   0.990       .  S
O782        H806   0.990       .  S
Zr783       O786   2.374       .  S
Zr783       O788   2.401       .  S
Zr783       O789   2.411       .  S
Zr784       O785   2.379   1_554  S
Zr784       O787   2.391       .  S
Zr784       O790   2.393       .  S
O785        H793   0.961       .  S
O788        H792   0.966       .  S
O789        H794   0.964       .  S
O807       Zr819   2.395       .  S
O807        C809   1.282       .  A
O808       Zr845   2.433       .  S
O808        C809   1.283   1_565  A
C809       C2546   1.483       .  S
O810       Zr822   2.416   1_545  S
O810        C812   1.283       .  A
O811       Zr846   2.409       .  S
O811        C812   1.283       .  A
C812       C2530   1.468       .  S
O813       Zr822   2.437       .  S
O813        C815   1.289       .  A
O814       Zr845   2.394       .  S
O814        C815   1.280       .  A
C815       C2629   1.463       .  S
O816       Zr819   2.420       .  S
O816        C818   1.285       .  A
O817       Zr846   2.411       .  S
O817        C818   1.282       .  A
C818       C2514   1.461       .  S
Zr819       O820   2.431       .  S
Zr819       O821   2.436       .  S
Zr819       O825   2.363       .  S
Zr819       O826   2.349       .  S
Zr819       O849   2.341       .  S
Zr819       O851   2.338       .  S
O820        H863   0.990       .  S
O821        H862   0.990       .  S
O821        H866   0.990       .  S
Zr822       O823   2.436       .  S
Zr822       O824   2.432       .  S
Zr822       O826   2.347   1_565  S
Zr822       O825   2.353   1_565  S
Zr822       O850   2.334       .  S
Zr822       O852   2.363   1_565  S
O823        H864   0.990   1_565  S
O823        H867   0.990       .  S
O824        H857   0.990       .  S
O825       Zr845   2.391   1_545  S
O826       Zr846   2.390       .  S
O826        H853   0.965       .  S
O827       Zr839   2.501       .  S
O827        C829   1.298       .  A
O828       Zr846   2.428       .  S
O828        C829   1.288       .  A
C829       C2482   1.516       .  S
O830       Zr842   2.494   1_565  S
O830        C832   1.296       .  A
O831       Zr845   2.445       .  S
O831        C832   1.291       .  A
C832       C2501   1.508       .  S
O833       Zr842   2.505       .  S
O833        C835   1.298       .  A
O834       Zr846   2.412       .  S
O834        C835   1.280       .  A
C835       C2469   1.513       .  S
O836       Zr839   2.502       .  S
O836        C838   1.297       .  A
O837       Zr845   2.423   1_545  S
O837        C838   1.288       .  A
C838       C2450   1.502       .  S
Zr839       O840   2.435       .  S
Zr839       O841   2.436       .  S
Zr839       O847   2.406       .  S
Zr839       O848   2.408       .  S
Zr839       O851   2.375       .  S
Zr839       O849   2.364       .  S
O840        H860   0.990       .  S
O840        H865   0.990       .  S
O841        H861   0.990       .  S
Zr842       O843   2.434       .  S
Zr842       O844   2.437   1_545  S
Zr842       O848   2.410       .  S
Zr842       O847   2.403       .  S
Zr842       O852   2.363       .  S
Zr842       O850   2.378   1_545  S
O843        H859   0.990       .  S
O844        H858   0.990       .  S
O844        H868   0.990       .  S
Zr845       O848   2.393   1_565  S
Zr845       O850   2.378       .  S
Zr845       O851   2.382   1_565  S
Zr846       O847   2.399       .  S
Zr846       O849   2.369       .  S
Zr846       O852   2.375       .  S
O847        H855   0.966       .  S
O850        H854   0.960       .  S
O851        H856   0.960       .  S
O869       Zr881   2.506       .  S
O869        C871   1.300       .  A
O870       Zr907   2.424       .  S
O870        C871   1.284       .  A
C871       C2373   1.506       .  S
O872       Zr884   2.396       .  S
O872        C874   1.281   1_556  A
O873       Zr908   2.429       .  S
O873        C874   1.284       .  A
C874       C2434   1.469       .  S
O875       Zr884   2.428       .  S
O875        C877   1.281       .  A
O876       Zr907   2.402       .  S
O876        C877   1.278       .  A
C877       C2517   1.454       .  S
O878       Zr881   2.509       .  S
O878        C880   1.300   1_556  A
O879       Zr908   2.447       .  S
O879        C880   1.291       .  A
C880       C2338   1.505   1_554  S
Zr881       O882   2.436       .  S
Zr881       O883   2.436       .  S
Zr881       O887   2.358       .  S
Zr881       O888   2.366       .  S
Zr881       O911   2.404   1_556  S
Zr881       O913   2.405       .  S
O882        H925   0.990       .  S
O883        H924   0.990       .  S
O883        H928   0.990       .  S
Zr884       O885   2.438       .  S
Zr884       O886   2.434       .  S
Zr884       O888   2.336       .  S
Zr884       O887   2.348       .  S
Zr884       O912   2.324       .  S
Zr884       O914   2.363   1_556  S
O885        H926   0.990       .  S
O885        H929   0.990       .  S
O886        H919   0.990       .  S
O887       Zr907   2.368       .  S
O888       Zr908   2.374   1_556  S
O888        H915   0.954       .  S
O889       Zr901   2.517       .  S
O889        C891   1.302       .  A
O890       Zr908   2.420       .  S
O890        C891   1.284       .  A
C891       C2386   1.519       .  S
O892       Zr904   2.427   1_556  S
O892        C894   1.286       .  A
O893       Zr907   2.401       .  S
O893        C894   1.281       .  A
C894       C2421   1.452       .  S
O895       Zr904   2.414       .  S
O895        C897   1.284       .  A
O896       Zr908   2.419       .  S
O896        C897   1.284       .  A
C897       C2402   1.462       .  S
O898       Zr901   2.524       .  S
O898        C900   1.304   1_554  A
O899       Zr907   2.416       .  S
O899        C900   1.281       .  A
C900       C2354   1.520       .  S
Zr901       O902   2.438       .  S
Zr901       O903   2.434       .  S
Zr901       O909   2.372       .  S
Zr901       O910   2.364   1_554  S
Zr901       O913   2.406   1_554  S
Zr901       O911   2.413       .  S
O902        H922   0.990       .  S
O902        H927   0.990       .  S
O903        H923   0.990       .  S
Zr904       O905   2.435       .  S
Zr904       O906   2.434       .  S
Zr904       O910   2.353   1_554  S
Zr904       O909   2.347       .  S
Zr904       O914   2.367       .  S
Zr904       O912   2.354   1_554  S
O905        H921   0.990       .  S
O906        H920   0.989   1_554  S
O906        H930   0.990       .  S
Zr907       O910   2.375       .  S
Zr907       O912   2.398       .  S
Zr907       O913   2.399       .  S
Zr908       O909   2.392       .  S
Zr908       O911   2.399       .  S
Zr908       O914   2.389       .  S
O909        H917   0.961       .  S
O912        H916   0.963       .  S
O913        H918   0.966       .  S
O931       Zr943   2.414       .  S
O931        C933   1.283       .  A
O932       Zr969   2.394       .  S
O932        C933   1.280       .  A
C933       C2645   1.451       .  S
O934       Zr946   2.412       .  S
O934        C936   1.277       .  A
O935       Zr970   2.432       .  S
O935        C936   1.284       .  A
C936       C2405   1.482       .  S
O937       Zr946   2.429       .  S
O937        C939   1.285   1_545  A
O938       Zr969   2.386       .  S
O938        C939   1.277       .  A
C939       C2325   1.445       .  S
O940       Zr943   2.405   1_545  S
O940        C942   1.276       .  A
O941       Zr970   2.426       .  S
O941        C942   1.284       .  A
C942       C2309   1.477       .  S
Zr943       O944   2.435   1_565  S
Zr943       O945   2.439       .  S
Zr943       O949   2.350       .  S
Zr943       O950   2.357   1_565  S
Zr943       O973   2.354   1_565  S
Zr943       O975   2.357       .  S
O944        H987   0.990   1_545  S
O945        H986   0.990       .  S
O945        H990   0.990       .  S
Zr946       O947   2.436       .  S
Zr946       O948   2.434       .  S
Zr946       O950   2.364       .  S
Zr946       O949   2.360   1_545  S
Zr946       O974   2.351       .  S
Zr946       O976   2.359       .  S
O947        H988   0.990       .  S
O947        H991   0.990       .  S
O948        H981   0.990       .  S
O949       Zr969   2.385       .  S
O950       Zr970   2.403       .  S
O950        H977   0.966       .  S
O951       Zr963   2.497       .  S
O951        C953   1.297   1_565  A
O952       Zr970   2.424       .  S
O952        C953   1.288       .  A
C953       C2277   1.511       .  S
O954       Zr966   2.510       .  S
O954        C956   1.301   1_545  A
O955       Zr969   2.424       .  S
O955        C956   1.284       .  A
C956       C2290   1.516       .  S
O957       Zr966   2.526       .  S
O957        C959   1.302       .  A
O958       Zr970   2.409       .  S
O958        C959   1.285       .  A
C959       C2242   1.524       .  S
O960       Zr963   2.527       .  S
O960        C962   1.301       .  A
O961       Zr969   2.409       .  S
O961        C962   1.281       .  A
C962       C2258   1.513       .  S
Zr963       O964   2.435       .  S
Zr963       O965   2.436       .  S
Zr963       O971   2.408   1_565  S
Zr963       O972   2.400       .  S
Zr963       O975   2.366       .  S
Zr963       O973   2.364   1_565  S
O964        H984   0.990       .  S
O964        H989   0.990       .  S
O965        H985   0.990       .  S
Zr966       O967   2.434       .  S
Zr966       O968   2.437       .  S
Zr966       O972   2.406   1_545  S
Zr966       O971   2.409       .  S
Zr966       O976   2.351       .  S
Zr966       O974   2.392       .  S
O967        H983   0.990       .  S
O968        H982   0.990       .  S
O968        H992   0.990       .  S
Zr969       O972   2.380       .  S
Zr969       O974   2.382   1_565  S
Zr969       O975   2.381       .  S
Zr970       O971   2.406       .  S
Zr970       O973   2.365       .  S
Zr970       O976   2.375       .  S
O971        H979   0.966       .  S
O974        H978   0.964       .  S
O975        H980   0.960       .  S
O993      Zr1005   2.438       .  S
O993        C995   1.287   1_556  A
O994      Zr1031   2.396       .  S
O994        C995   1.280       .  A
C995       C2658   1.453       .  S
O996      Zr1008   2.424   1_556  S
O996        C998   1.287       .  A
O997      Zr1032   2.392       .  S
O997        C998   1.278       .  A
C998       C2418   1.448       .  S
O999      Zr1008   2.402       .  S
O999       C1001   1.282       .  A
O1000     Zr1031   2.437       .  S
O1000      C1001   1.287   1_565  A
C1001      C2306   1.489       .  S
O1002     Zr1005   2.409   1_545  S
O1002      C1004   1.285       .  A
O1003     Zr1032   2.414       .  S
O1003      C1004   1.283       .  A
C1004      C2533   1.462       .  S
Zr1005     O1006   2.435   1_565  S
Zr1005     O1007   2.436       .  S
Zr1005     O1011   2.355   1_565  S
Zr1005     O1012   2.346   1_565  S
Zr1005     O1035   2.361   1_565  S
Zr1005     O1037   2.339       .  S
O1006      H1049   0.990       .  S
O1007      H1048   0.990       .  S
O1007      H1052   0.990       .  S
Zr1008     O1009   2.435       .  S
Zr1008     O1010   2.434       .  S
Zr1008     O1012   2.344   1_554  S
Zr1008     O1011   2.365   1_554  S
Zr1008     O1036   2.349       .  S
Zr1008     O1038   2.343   1_554  S
O1009      H1050   0.990   1_554  S
O1009      H1053   0.990       .  S
O1010      H1043   0.990       .  S
O1011     Zr1031   2.386   1_546  S
O1012     Zr1032   2.395       .  S
O1012      H1039   0.965       .  S
O1013     Zr1025   2.514       .  S
O1013      C1015   1.299   1_565  A
O1014     Zr1032   2.410       .  S
O1014      C1015   1.282       .  A
C1015      C2213   1.516       .  S
O1016     Zr1028   2.491       .  S
O1016      C1018   1.296       .  A
O1017     Zr1031   2.418       .  S
O1017      C1018   1.285   1_565  A
C1018      C2226   1.500       .  S
O1019     Zr1028   2.482   1_556  S
O1019      C1021   1.296       .  A
O1020     Zr1032   2.459       .  S
O1020      C1021   1.291       .  A
C1021      C2197   1.506       .  S
O1022     Zr1025   2.500       .  S
O1022      C1024   1.298       .  A
O1023     Zr1031   2.439       .  S
O1023      C1024   1.291   1_554  A
C1024      C2178   1.519       .  S
Zr1025     O1026   2.438       .  S
Zr1025     O1027   2.434       .  S
Zr1025     O1033   2.411   1_565  S
Zr1025     O1034   2.408       .  S
Zr1025     O1037   2.385       .  S
Zr1025     O1035   2.357   1_565  S
O1026      H1046   0.989       .  S
O1026      H1051   0.989   1_565  S
O1027      H1047   0.990       .  S
Zr1028     O1029   2.434   1_554  S
Zr1028     O1030   2.438       .  S
Zr1028     O1034   2.396   1_544  S
Zr1028     O1033   2.402   1_554  S
Zr1028     O1038   2.367   1_554  S
Zr1028     O1036   2.373       .  S
O1029      H1045   0.990   1_556  S
O1030      H1044   0.990       .  S
O1030      H1054   0.990       .  S
Zr1031     O1034   2.397   1_554  S
Zr1031     O1036   2.373   1_565  S
Zr1031     O1037   2.387   1_554  S
Zr1032     O1033   2.402       .  S
Zr1032     O1035   2.383       .  S
Zr1032     O1038   2.362       .  S
O1033      H1041   0.966       .  S
O1036      H1040   0.959       .  S
O1037      H1042   0.962       .  S
O1055     Zr1067   2.423       .  S
O1055      C1057   1.284   1_545  A
O1056     Zr1093   2.377       .  S
O1056      C1057   1.275       .  A
C1057      C2322   1.437       .  S
O1058     Zr1070   2.393   1_545  S
O1058      C1060   1.268       .  A
O1059     Zr1094   2.449       .  S
O1059      C1060   1.286       .  A
C1060      C2549   1.476       .  S
O1061     Zr1070   2.386       .  S
O1061      C1063   1.271   1_556  A
O1062     Zr1093   2.419       .  S
O1062      C1063   1.279       .  A
C1063      C2677   1.442   1_554  S
O1064     Zr1067   2.387       .  S
O1064      C1066   1.276   1_554  A
O1065     Zr1094   2.462       .  S
O1065      C1066   1.294       .  A
C1066      C2437   1.461       .  S
Zr1067     O1068   2.435       .  S
Zr1067     O1069   2.440       .  S
Zr1067     O1073   2.345   1_545  S
Zr1067     O1074   2.360   1_554  S
Zr1067     O1097   2.358       .  S
Zr1067     O1099   2.331       .  S
O1068      H1111   0.990       .  S
O1069      H1110   0.990       .  S
O1069      H1114   0.990       .  S
Zr1070     O1071   2.440       .  S
Zr1070     O1072   2.435       .  S
Zr1070     O1074   2.366   1_565  S
Zr1070     O1073   2.350   1_556  S
Zr1070     O1098   2.361       .  S
Zr1070     O1100   2.349   1_565  S
O1071      H1112   0.988   1_565  S
O1071      H1115   0.989       .  S
O1072      H1105   0.990       .  S
O1073     Zr1093   2.383       .  S
O1074     Zr1094   2.396       .  S
O1074      H1101   0.960       .  S
O1075     Zr1087   2.526       .  S
O1075      C1077   1.303   1_554  A
O1076     Zr1094   2.404       .  S
O1076      C1077   1.281       .  A
C1077      C2117   1.522       .  S
O1078     Zr1090   2.546   1_565  S
O1078      C1080   1.305   1_556  A
O1079     Zr1093   2.404       .  S
O1079      C1080   1.283       .  A
C1080      C2133   1.519   1_554  S
O1081     Zr1090   2.503       .  S
O1081      C1083   1.301       .  A
O1082     Zr1094   2.434       .  S
O1082      C1083   1.287       .  A
C1083      C2146   1.515       .  S
O1084     Zr1087   2.521       .  S
O1084      C1086   1.304       .  A
O1085     Zr1093   2.425       .  S
O1085      C1086   1.284   1_565  A
C1086      C2162   1.521       .  S
Zr1087     O1088   2.437       .  S
Zr1087     O1089   2.435       .  S
Zr1087     O1095   2.415   1_554  S
Zr1087     O1096   2.409       .  S
Zr1087     O1099   2.385       .  S
Zr1087     O1097   2.359       .  S
O1088      H1108   0.990       .  S
O1088      H1113   0.989       .  S
O1089      H1109   0.990       .  S
Zr1090     O1091   2.434       .  S
Zr1090     O1092   2.437   1_545  S
Zr1090     O1096   2.399   1_556  S
Zr1090     O1095   2.412       .  S
Zr1090     O1100   2.365       .  S
Zr1090     O1098   2.362   1_545  S
O1091      H1107   0.990       .  S
O1092      H1106   0.990       .  S
O1092      H1116   0.990       .  S
Zr1093     O1096   2.390   1_565  S
Zr1093     O1098   2.385   1_554  S
Zr1093     O1099   2.383   1_565  S
Zr1094     O1095   2.418       .  S
Zr1094     O1097   2.378   1_556  S
Zr1094     O1100   2.373       .  S
O1095      H1103   0.966       .  S
O1098      H1102   0.956       .  S
O1099      H1104   0.963       .  S
O1117     Zr1129   2.395       .  S
O1117      C1119   1.280       .  A
O1118     Zr1155   2.423       .  S
O1118      C1119   1.286   1_655  A
C1119      C2098   1.452       .  S
O1120     Zr1132   2.392       .  S
O1120      C1122   1.274   1_655  A
O1121     Zr1156   2.422       .  S
O1121      C1122   1.282       .  A
C1122      C2085   1.474       .  S
O1123     Zr1132   2.402       .  S
O1123      C1125   1.281       .  A
O1124     Zr1155   2.419       .  S
O1124      C1125   1.283       .  A
C1125      C2050   1.456       .  S
O1126     Zr1129   2.394       .  S
O1126      C1128   1.280       .  A
O1127     Zr1156   2.411       .  S
O1127      C1128   1.282       .  A
C1128      C2069   1.438       .  S
Zr1129     O1130   2.434       .  S
Zr1129     O1131   2.435       .  S
Zr1129     O1135   2.356       .  S
Zr1129     O1136   2.352       .  S
Zr1129     O1159   2.351       .  S
Zr1129     O1161   2.344       .  S
O1130      H1173   0.990       .  S
O1131      H1172   0.990       .  S
O1131      H1176   0.990       .  S
Zr1132     O1133   2.438   1_655  S
Zr1132     O1134   2.436       .  S
Zr1132     O1136   2.331   1_655  S
Zr1132     O1135   2.352   1_655  S
Zr1132     O1160   2.330       .  S
Zr1132     O1162   2.353   1_655  S
O1133      H1174   0.990       .  S
O1133      H1177   0.990   1_455  S
O1134      H1167   0.990       .  S
O1135     Zr1155   2.392   1_455  S
O1136     Zr1156   2.399       .  S
O1136      H1163   0.965       .  S
O1137     Zr1149   2.501       .  S
O1137      C1139   1.298       .  A
O1138     Zr1156   2.447       .  S
O1138      C1139   1.293       .  A
C1139      C1989   1.521       .  S
O1140     Zr1152   2.474       .  S
O1140      C1142   1.293       .  A
O1141     Zr1155   2.472       .  S
O1141      C1142   1.296       .  A
C1142      C2034   1.501       .  S
O1143     Zr1152   2.503       .  S
O1143      C1145   1.297   1_655  A
O1144     Zr1156   2.422       .  S
O1144      C1145   1.286       .  A
C1145      C2002   1.514       .  S
O1146     Zr1149   2.496       .  S
O1146      C1148   1.298       .  A
O1147     Zr1155   2.431       .  S
O1147      C1148   1.288   1_655  A
C1148      C2021   1.500       .  S
Zr1149     O1150   2.434       .  S
Zr1149     O1151   2.436       .  S
Zr1149     O1157   2.401       .  S
Zr1149     O1158   2.408       .  S
Zr1149     O1161   2.372       .  S
Zr1149     O1159   2.369       .  S
O1150      H1170   0.990       .  S
O1150      H1175   0.990       .  S
O1151      H1171   0.990       .  S
Zr1152     O1153   2.434       .  S
Zr1152     O1154   2.438       .  S
Zr1152     O1158   2.404   1_655  S
Zr1152     O1157   2.402   1_655  S
Zr1152     O1162   2.344   1_655  S
Zr1152     O1160   2.394       .  S
O1153      H1169   0.990       .  S
O1154      H1168   0.990       .  S
O1154      H1178   0.990       .  S
Zr1155     O1158   2.401   1_655  S
Zr1155     O1160   2.371       .  S
Zr1155     O1161   2.390   1_655  S
Zr1156     O1157   2.404       .  S
Zr1156     O1159   2.374       .  S
Zr1156     O1162   2.370       .  S
O1157      H1165   0.966       .  S
O1160      H1164   0.957       .  S
O1161      H1166   0.962       .  S
O1179     Zr1191   2.444       .  S
O1179      C1181   1.287   1_545  A
O1180     Zr1217   2.391       .  S
O1180      C1181   1.276       .  A
C1181      C1957   1.464       .  S
O1182     Zr1194   2.422   1_545  S
O1182      C1184   1.283       .  A
O1183     Zr1218   2.387       .  S
O1183      C1184   1.279       .  A
C1184      C1973   1.466       .  S
O1185     Zr1194   2.370       .  S
O1185      C1187   1.261       .  A
O1186     Zr1217   2.426       .  S
O1186      C1187   1.275       .  A
C1187      C2053   1.468       .  S
O1188     Zr1191   2.452       .  S
O1188      C1190   1.294       .  A
O1189     Zr1218   2.388       .  S
O1189      C1190   1.278       .  A
C1190      C1938   1.454       .  S
Zr1191     O1192   2.432       .  S
Zr1191     O1193   2.434       .  S
Zr1191     O1197   2.340       .  S
Zr1191     O1198   2.358       .  S
Zr1191     O1221   2.343       .  S
Zr1191     O1223   2.374       .  S
O1192      H1235   0.989       .  S
O1193      H1234   0.990       .  S
O1193      H1238   0.990       .  S
Zr1194     O1195   2.433       .  S
Zr1194     O1196   2.437       .  S
Zr1194     O1198   2.320   1_565  S
Zr1194     O1197   2.346   1_565  S
Zr1194     O1222   2.362       .  S
Zr1194     O1224   2.313   1_565  S
O1195      H1236   0.990       .  S
O1195      H1239   0.990       .  S
O1196      H1229   0.990       .  S
O1197     Zr1217   2.351   1_545  S
O1198     Zr1218   2.413       .  S
O1198      H1225   0.964       .  S
O1199     Zr1211   2.488       .  S
O1199      C1201   1.293       .  A
O1200     Zr1218   2.457       .  S
O1200      C1201   1.292       .  A
C1201      C1874   1.498       .  S
O1202     Zr1214   2.495       .  S
O1202      C1204   1.297       .  A
O1203     Zr1217   2.413       .  S
O1203      C1204   1.280       .  A
C1204      C1925   1.510       .  S
O1205     Zr1214   2.520       .  S
O1205      C1207   1.302   1_565  A
O1206     Zr1218   2.426       .  S
O1206      C1207   1.284       .  A
C1207      C1906   1.511       .  S
O1208     Zr1211   2.459       .  S
O1208      C1210   1.288       .  A
O1209     Zr1217   2.444       .  S
O1209      C1210   1.289   1_565  A
C1210      C1893   1.500       .  S
Zr1211     O1212   2.439       .  S
Zr1211     O1213   2.436       .  S
Zr1211     O1219   2.406       .  S
Zr1211     O1220   2.421   1_545  S
Zr1211     O1223   2.416       .  S
Zr1211     O1221   2.378       .  S
O1212      H1232   0.989       .  S
O1212      H1237   0.990       .  S
O1213      H1233   0.990       .  S
Zr1214     O1215   2.434       .  S
Zr1214     O1216   2.438       .  S
Zr1214     O1220   2.427       .  S
Zr1214     O1219   2.420   1_565  S
Zr1214     O1224   2.372   1_565  S
Zr1214     O1222   2.424       .  S
O1215      H1231   0.990       .  S
O1216      H1230   0.990       .  S
O1216      H1240   0.990       .  S
Zr1217     O1220   2.371       .  S
Zr1217     O1222   2.411       .  S
Zr1217     O1223   2.388   1_565  S
Zr1218     O1219   2.396       .  S
Zr1218     O1221   2.382       .  S
Zr1218     O1224   2.394       .  S
O1219      H1227   0.966       .  S
O1222      H1226   0.965       .  S
O1223      H1228   0.963       .  S
O1241     Zr1253   2.444       .  S
O1241      C1243   1.288       .  A
O1242     Zr1279   2.357       .  S
O1242      C1243   1.272       .  A
C1243      C2066   1.434       .  S
O1244     Zr1256   2.339       .  S
O1244      C1246   1.265       .  A
O1245     Zr1280   2.450       .  S
O1245      C1246   1.291       .  A
C1246      C1829   1.465       .  S
O1247     Zr1256   2.387       .  S
O1247      C1249   1.265       .  A
O1248     Zr1279   2.388       .  S
O1248      C1249   1.276   1_565  A
C1249      C1842   1.459       .  S
O1250     Zr1253   2.405   1_545  S
O1250      C1252   1.270       .  A
O1251     Zr1280   2.418       .  S
O1251      C1252   1.278       .  A
C1252      C1861   1.457       .  S
Zr1253     O1254   2.434   1_565  S
Zr1253     O1255   2.435       .  S
Zr1253     O1259   2.327   1_565  S
Zr1253     O1260   2.378   1_565  S
Zr1253     O1283   2.361   1_565  S
Zr1253     O1285   2.357       .  S
O1254      H1297   0.990       .  S
O1255      H1296   0.990       .  S
O1255      H1300   0.990       .  S
Zr1256     O1257   2.440       .  S
Zr1256     O1258   2.437       .  S
Zr1256     O1260   2.349       .  S
Zr1256     O1259   2.326       .  S
Zr1256     O1284   2.349       .  S
Zr1256     O1286   2.356       .  S
O1257      H1298   0.989       .  S
O1257      H1301   0.990       .  S
O1258      H1291   0.989       .  S
O1259     Zr1279   2.377   1_545  S
O1260     Zr1280   2.408       .  S
O1260      H1287   0.965       .  S
O1261     Zr1273   2.508   1_545  S
O1261      C1263   1.300       .  A
O1262     Zr1280   2.432       .  S
O1262      C1263   1.290       .  A
C1263      C1762   1.521       .  S
O1264     Zr1276   2.510       .  S
O1264      C1266   1.300       .  A
O1265     Zr1279   2.427       .  S
O1265      C1266   1.285   1_565  A
C1266      C1810   1.504       .  S
O1267     Zr1276   2.506       .  S
O1267      C1269   1.298       .  A
O1268     Zr1280   2.421       .  S
O1268      C1269   1.284       .  A
C1269      C1778   1.516       .  S
O1270     Zr1273   2.526       .  S
O1270      C1272   1.303       .  A
O1271     Zr1279   2.415       .  S
O1271      C1272   1.282       .  A
C1272      C1797   1.521       .  S
Zr1273     O1274   2.438   1_565  S
Zr1273     O1275   2.434       .  S
Zr1273     O1281   2.424   1_565  S
Zr1273     O1282   2.405   1_565  S
Zr1273     O1285   2.390       .  S
Zr1273     O1283   2.358   1_565  S
O1274      H1294   0.990       .  S
O1274      H1299   0.989       .  S
O1275      H1295   0.990       .  S
Zr1276     O1277   2.434       .  S
Zr1276     O1278   2.438       .  S
Zr1276     O1282   2.405       .  S
Zr1276     O1281   2.412       .  S
Zr1276     O1286   2.359       .  S
Zr1276     O1284   2.380       .  S
O1277      H1293   0.990       .  S
O1278      H1292   0.990       .  S
O1278      H1302   0.990       .  S
Zr1279     O1282   2.376   1_565  S
Zr1279     O1284   2.387   1_565  S
Zr1279     O1285   2.391       .  S
Zr1280     O1281   2.411       .  S
Zr1280     O1283   2.391       .  S
Zr1280     O1286   2.366       .  S
O1281      H1289   0.966       .  S
O1284      H1288   0.963       .  S
O1285      H1290   0.964       .  S
O1303     Zr1315   2.503       .  S
O1303      C1305   1.298       .  A
O1304     Zr1341   2.422       .  S
O1304      C1305   1.284       .  A
C1305      C1682   1.513       .  S
O1306     Zr1318   2.455   1_455  S
O1306      C1308   1.291       .  A
O1307     Zr1342   2.419       .  S
O1307      C1308   1.285       .  A
C1308      C1733   1.487       .  S
O1309     Zr1318   2.428       .  S
O1309      C1311   1.287       .  A
O1310     Zr1341   2.404       .  S
O1310      C1311   1.280       .  A
C1311      C1941   1.455       .  S
O1312     Zr1315   2.483       .  S
O1312      C1314   1.295   1_655  A
O1313     Zr1342   2.455       .  S
O1313      C1314   1.294       .  A
C1314      C1717   1.511       .  S
Zr1315     O1316   2.437       .  S
Zr1315     O1317   2.435       .  S
Zr1315     O1321   2.367       .  S
Zr1315     O1322   2.391       .  S
Zr1315     O1345   2.406   1_655  S
Zr1315     O1347   2.402       .  S
O1316      H1359   0.990       .  S
O1317      H1358   0.990       .  S
O1317      H1362   0.990       .  S
Zr1318     O1319   2.436       .  S
Zr1318     O1320   2.432       .  S
Zr1318     O1322   2.342       .  S
Zr1318     O1321   2.360       .  S
Zr1318     O1346   2.364       .  S
Zr1318     O1348   2.364   1_655  S
O1319      H1360   0.990       .  S
O1319      H1363   0.990       .  S
O1320      H1353   0.991       .  S
O1321     Zr1341   2.381       .  S
O1322     Zr1342   2.393   1_655  S
O1322      H1349   0.963       .  S
O1323     Zr1335   2.522       .  S
O1323      C1325   1.302       .  A
O1324     Zr1342   2.434       .  S
O1324      C1325   1.288       .  A
C1325      C1701   1.511       .  S
O1326     Zr1338   2.393       .  S
O1326      C1328   1.277   1_455  A
O1327     Zr1341   2.412       .  S
O1327      C1328   1.283       .  A
C1328      C1746   1.468       .  S
O1329     Zr1338   2.381       .  S
O1329      C1331   1.275       .  A
O1330     Zr1342   2.435       .  S
O1330      C1331   1.290       .  A
C1331      C1826   1.463       .  S
O1332     Zr1335   2.517       .  S
O1332      C1334   1.302       .  A
O1333     Zr1341   2.432       .  S
O1333      C1334   1.285   1_655  A
C1334      C1666   1.521       .  S
Zr1335     O1336   2.437       .  S
Zr1335     O1337   2.434       .  S
Zr1335     O1343   2.366       .  S
Zr1335     O1344   2.358       .  S
Zr1335     O1347   2.408   1_455  S
Zr1335     O1345   2.405       .  S
O1336      H1356   0.990       .  S
O1336      H1361   0.990       .  S
O1337      H1357   0.990       .  S
Zr1338     O1339   2.427       .  S
Zr1338     O1340   2.435       .  S
Zr1338     O1344   2.340       .  S
Zr1338     O1343   2.333       .  S
Zr1338     O1348   2.356       .  S
Zr1338     O1346   2.322   1_455  S
O1339      H1355   0.990       .  S
O1340      H1354   0.990       .  S
O1340      H1364   0.990       .  S
Zr1341     O1344   2.361   1_655  S
Zr1341     O1346   2.392       .  S
Zr1341     O1347   2.399       .  S
Zr1342     O1343   2.379       .  S
Zr1342     O1345   2.400       .  S
Zr1342     O1348   2.390       .  S
O1343      H1351   0.960       .  S
O1346      H1350   0.965       .  S
O1347      H1352   0.966       .  S
O1365     Zr1377   2.511       .  S
O1365      C1367   1.300       .  A
O1366     Zr1403   2.411       .  S
O1366      C1367   1.280   1_655  A
C1367      C1618   1.511       .  S
O1368     Zr1380   2.387   1_545  S
O1368      C1370   1.279       .  A
O1369     Zr1404   2.389       .  S
O1369      C1370   1.277       .  A
C1370      C1845   1.433       .  S
O1371     Zr1380   2.376       .  S
O1371      C1373   1.277       .  A
O1372     Zr1403   2.428       .  S
O1372      C1373   1.285   1_655  A
C1373      C2082   1.469       .  S
O1374     Zr1377   2.499   1_545  S
O1374      C1376   1.298       .  A
O1375     Zr1404   2.449       .  S
O1375      C1376   1.292       .  A
C1376      C1605   1.514       .  S
Zr1377     O1378   2.436       .  S
Zr1377     O1379   2.435       .  S
Zr1377     O1383   2.355       .  S
Zr1377     O1384   2.384   1_565  S
Zr1377     O1407   2.407   1_565  S
Zr1377     O1409   2.406   1_455  S
O1378      H1421   0.990       .  S
O1379      H1420   0.990       .  S
O1379      H1424   0.990       .  S
Zr1380     O1381   2.436       .  S
Zr1380     O1382   2.437       .  S
Zr1380     O1384   2.333   1_565  S
Zr1380     O1383   2.343       .  S
Zr1380     O1408   2.333   1_455  S
Zr1380     O1410   2.338   1_565  S
O1381      H1422   0.989       .  S
O1381      H1425   0.990       .  S
O1382      H1415   0.990       .  S
O1383     Zr1403   2.373   1_455  S
O1384     Zr1404   2.388       .  S
O1384      H1411   0.962   1_545  S
O1385     Zr1397   2.482       .  S
O1385      C1387   1.293   1_655  A
O1386     Zr1404   2.426       .  S
O1386      C1387   1.287       .  A
C1387      C1650   1.485       .  S
O1388     Zr1400   2.418       .  S
O1388      C1390   1.284   1_545  A
O1389     Zr1403   2.411       .  S
O1389      C1390   1.282       .  A
C1390      C1954   1.453       .  S
O1391     Zr1400   2.425   1_455  S
O1391      C1393   1.286       .  A
O1392     Zr1404   2.445       .  S
O1392      C1393   1.287       .  A
C1393      C1730   1.490       .  S
O1394     Zr1397   2.493       .  S
O1394      C1396   1.297       .  A
O1395     Zr1403   2.428       .  S
O1395      C1396   1.288   1_565  A
C1396      C1637   1.510       .  S
Zr1397     O1398   2.439       .  S
Zr1397     O1399   2.434       .  S
Zr1397     O1405   2.395   1_655  S
Zr1397     O1406   2.370       .  S
Zr1397     O1409   2.401   1_545  S
Zr1397     O1407   2.404   1_655  S
O1398      H1418   0.990       .  S
O1398      H1423   0.990       .  S
O1399      H1419   0.990       .  S
Zr1400     O1401   2.437       .  S
Zr1400     O1402   2.438       .  S
Zr1400     O1406   2.353       .  S
Zr1400     O1405   2.348   1_655  S
Zr1400     O1410   2.351   1_655  S
Zr1400     O1408   2.362   1_545  S
O1401      H1417   0.990       .  S
O1402      H1416   0.990       .  S
O1402      H1426   0.990       .  S
Zr1403     O1406   2.376   1_565  S
Zr1403     O1408   2.384       .  S
Zr1403     O1409   2.402       .  S
Zr1404     O1405   2.393       .  S
Zr1404     O1407   2.397       .  S
Zr1404     O1410   2.385       .  S
O1405      H1413   0.963   1_455  S
O1408      H1412   0.963       .  S
O1409      H1414   0.966       .  S
O1427     Zr1439   2.397   1_465  S
O1427      C1429   1.279       .  A
O1428     Zr1465   2.411   1_565  S
O1428      C1429   1.281       .  A
C1429      C2101   1.470       .  S
O1430     Zr1442   2.406       .  S
O1430      C1432   1.285   1_455  A
O1431     Zr1466   2.407       .  S
O1431      C1432   1.279       .  A
C1432      C1749   1.471       .  S
O1433     Zr1442   2.391       .  S
O1433      C1435   1.279       .  A
O1434     Zr1465   2.421       .  S
O1434      C1435   1.287       .  A
C1435      C1858   1.459       .  S
O1436     Zr1439   2.376       .  S
O1436      C1438   1.278       .  A
O1437     Zr1466   2.435       .  S
O1437      C1438   1.285       .  A
C1438      C1970   1.464       .  S
Zr1439     O1440   2.434       .  S
Zr1439     O1441   2.438   1_545  S
Zr1439     O1445   2.342   1_655  S
Zr1439     O1446   2.360       .  S
Zr1439     O1469   2.340       .  S
Zr1439     O1471   2.347   1_645  S
O1440      H1483   0.990       .  S
O1441      H1482   0.990       .  S
O1441      H1486   0.990       .  S
Zr1442     O1443   2.436       .  S
Zr1442     O1444   2.437       .  S
Zr1442     O1446   2.347   1_455  S
Zr1442     O1445   2.356       .  S
Zr1442     O1470   2.360       .  S
Zr1442     O1472   2.336       .  S
O1443      H1484   0.990       .  S
O1443      H1487   0.990       .  S
O1444      H1477   0.990       .  S
O1445     Zr1465   2.383       .  S
O1446     Zr1466   2.396       .  S
O1446      H1473   0.966       .  S
O1447     Zr1459   2.507       .  S
O1447      C1449   1.298       .  A
O1448     Zr1466   2.431       .  S
O1448      C1449   1.287       .  A
C1449      C1541   1.518       .  S
O1450     Zr1462   2.526       .  S
O1450      C1452   1.304       .  A
O1451     Zr1465   2.415       .  S
O1451      C1452   1.286       .  A
C1452      C1573   1.521       .  S
O1453     Zr1462   2.513       .  S
O1453      C1455   1.301       .  A
O1454     Zr1466   2.430       .  S
O1454      C1455   1.284   1_655  A
C1455      C1557   1.519       .  S
O1456     Zr1459   2.503   1_465  S
O1456      C1458   1.299       .  A
O1457     Zr1465   2.431   1_565  S
O1457      C1458   1.287       .  A
C1458      C1586   1.503       .  S
Zr1459     O1460   2.438   1_655  S
Zr1459     O1461   2.435   1_545  S
Zr1459     O1467   2.409   1_655  S
Zr1459     O1468   2.402   1_655  S
Zr1459     O1471   2.376   1_645  S
Zr1459     O1469   2.357       .  S
O1460      H1480   0.989       .  S
O1460      H1485   0.989   1_455  S
O1461      H1481   0.990       .  S
Zr1462     O1463   2.434       .  S
Zr1462     O1464   2.438       .  S
Zr1462     O1468   2.398       .  S
Zr1462     O1467   2.417       .  S
Zr1462     O1472   2.359       .  S
Zr1462     O1470   2.378       .  S
O1463      H1479   0.990       .  S
O1464      H1478   0.990       .  S
O1464      H1488   0.990       .  S
Zr1465     O1468   2.396       .  S
Zr1465     O1470   2.388       .  S
Zr1465     O1471   2.381   1_545  S
Zr1466     O1467   2.415   1_655  S
Zr1466     O1469   2.367       .  S
Zr1466     O1472   2.377   1_655  S
O1467      H1475   0.965   1_455  S
O1470      H1474   0.964       .  S
O1471      H1476   0.963       .  S
C1489      C1490   1.398       .  D
C1489      C2805   1.514       .  S
C1489      C2869   1.523       .  S
C1490      C1653   1.558       .  S
C1490      C1714   1.513       .  S
C1491      C1492   1.379       .  D
C1491      C2165   1.520       .  S
C1491      C2293   1.524       .  S
C1492      C1634   1.520       .  S
C1492      C1890   1.511   1_545  S
C1493      C1494   1.384       .  D
C1493      C2738   1.538       .  S
C1493      C2850   1.510       .  S
C1494      C1621   1.516       .  S
C1494      C2005   1.518       .  S
C1495      C1496   1.379       .  D
C1495      C2229   1.505       .  S
C1495      C2274   1.518       .  S
C1496      C1602   1.527       .  S
C1496      C1813   1.533       .  S
C1497      C1498   1.380       .  D
C1497      C3317   1.518       .  S
C1497      C3749   1.526       .  S
C1498      C1698   1.520       .  S
C1498      C1781   1.515       .  S
C1499      C1500   1.392       .  D
C1499      C3445   1.519       .  S
C1499      C3765   1.518       .  S
C1500      C1685   1.529       .  S
C1500      C1877   1.534       .  S
C1501      C1502   1.388       .  D
C1501      C1794   1.515       .  S
C1501      C1986   1.525       .  S
C1502      C3301   1.531       .  S
C1502      C3525   1.546       .  S
C1503      C1504   1.375       .  D
C1503      C2210   1.516       .  S
C1503      C2466   1.513       .  S
C1504      C1570   1.522       .  S
C1504      C1765   1.522       .  S
C1505      C1506   1.385       .  D
C1505      C2786   1.523       .  S
C1505      C2965   1.520       .  S
C1506      C2194   1.534       .  S
C1506      C2357   1.527       .  S
C1507      C1508   1.378       .  D
C1507      C2706   1.515       .  S
C1507      C2949   1.513       .  S
C1508      C2181   1.517       .  S
C1508      C2565   1.516       .  S
C1509      C1510   1.377       .  D
C1509      C3541   1.514       .  S
C1509      C3653   1.516       .  S
C1510      C2261   1.522       .  S
C1510      C2597   1.519       .  S
C1511      C1512   1.384       .  D
C1511      C3634   1.524       .  S
C1511      C3733   1.523       .  S
C1512      C2245   1.525       .  S
C1512      C2389   1.520       .  S
C1513      C1514   1.375       .  D
C1513      C3381   1.518       .  S
C1513      C3717   1.516       .  S
C1514      C2370   1.522       .  S
C1514      C2485   1.518       .  S
C1515      C1516   1.386       .  D
C1515      C2773   1.524       .  S
C1515      C3045   1.528       .  S
C1516      C1554   1.527       .  S
C1516      C1669   1.532       .  S
C1517      C1518   1.379       .  D
C1517      C2757   1.519       .  S
C1517      C3141   1.522       .  S
C1518      C2114   1.522       .  S
C1518      C2341   1.513       .  S
C1519      C1520   1.378       .  D
C1519      C3285   1.514       .  S
C1519      C3621   1.510       .  S
C1520      C2834   1.526       .  S
C1520      C2933   1.526       .  S
C1521      C1522   1.390       .  D
C1521      C3461   1.517       .  S
C1521      C3605   1.537       .  S
C1522      C2821   1.526       .  S
C1522      C3173   1.526       .  S
C1523      C1524   1.384       .  D
C1523      C3269   1.517       .  S
C1523      C3365   1.529       .  S
C1524      C2917   1.517       .  S
C1524      C3029   1.523       .  S
C1525      C1526   1.382       .  D
C1525      C2722   1.527       .  S
C1525      C3058   1.514       .  S
C1526      C1589   1.521       .  S
C1526      C2018   1.525       .  S
C1527      C1528   1.379       .  D
C1527      C2149   1.524       .  S
C1527      C2453   1.529       .  S
C1528      C1538   1.516       .  S
C1528      C1909   1.514       .  S
C1529      C1530   1.380       .  D
C1529      C2130   1.533       .  S
C1529      C2581   1.537       .  S
C1530      C2693   1.520       .  S
C1530      C3157   1.519       .  S
C1531      C1532   1.377       .  D
C1531      C3346   1.512       .  S
C1531      C3429   1.516       .  S
C1532      C3077   1.534       .  S
C1532      C3189   1.529       .  S
C1533      C1534   1.378       .  D
C1533      C3410   1.517       .  S
C1533      C3493   1.520       .  S
C1534      C1922   1.519       .  S
C1534      C2037   1.510       .  S
C1535      C1536   1.386       .  D
C1535      C3333   1.529       .  S
C1535      C3509   1.525       .  S
C1536      C2498   1.525       .  S
C1536      C2613   1.526       .  S
C1537      C1538   1.406       .  A
C1537      C1542   1.415       .  A
C1537      H1544   1.080   1_545  S
C1538      C1539   1.413       .  A
C1539      C1540   1.412       .  A
C1539      C1546   1.506       .  S
C1540      C1541   1.414       .  A
C1540      H1545   1.083       .  S
C1541      C1542   1.424       .  A
C1542      C1543   1.506   1_545  S
C1543      H1547   1.111       .  S
C1543      H1548   1.110       .  S
C1543      H1549   1.109       .  S
C1546      H1550   1.108       .  S
C1546      H1551   1.109       .  S
C1546      H1552   1.111       .  S
C1553      C1554   1.406   1_655  A
C1553      C1558   1.416       .  A
C1553      H1560   1.083       .  S
C1554      C1555   1.424       .  A
C1555      C1556   1.413       .  A
C1555      C1562   1.501       .  S
C1556      C1557   1.407       .  A
C1556      H1561   1.084       .  S
C1557      C1558   1.426   1_455  A
C1558      C1559   1.509       .  S
C1559      H1563   1.111       .  S
C1559      H1564   1.110       .  S
C1559      H1565   1.105       .  S
C1562      H1566   1.109       .  S
C1562      H1567   1.101       .  S
C1562      H1568   1.110       .  S
C1569      C1570   1.409       .  A
C1569      C1574   1.414       .  A
C1569      H1576   1.076       .  S
C1570      C1571   1.417       .  A
C1571      C1572   1.415       .  A
C1571      C1578   1.511   1_545  S
C1572      C1573   1.416       .  A
C1572      H1577   1.083   1_545  S
C1573      C1574   1.421       .  A
C1574      C1575   1.506       .  S
C1575      H1579   1.111       .  S
C1575      H1580   1.110       .  S
C1575      H1581   1.110       .  S
C1578      H1582   1.103       .  S
C1578      H1583   1.102       .  S
C1578      H1584   1.110       .  S
C1585      C1586   1.405       .  A
C1585      C1590   1.409       .  A
C1585      H1592   1.085   1_455  S
C1586      C1587   1.418       .  A
C1587      C1588   1.417       .  A
C1587      C1594   1.506       .  S
C1588      C1589   1.411       .  A
C1588      H1593   1.083       .  S
C1589      C1590   1.420       .  A
C1590      C1591   1.503   1_455  S
C1591      H1595   1.111       .  S
C1591      H1596   1.101       .  S
C1591      H1597   1.110       .  S
C1594      H1598   1.110       .  S
C1594      H1599   1.109       .  S
C1594      H1600   1.111       .  S
C1601      C1602   1.406   1_565  A
C1601      C1606   1.416       .  A
C1601      H1608   1.082       .  S
C1602      C1603   1.423       .  A
C1603      C1604   1.413       .  A
C1603      C1610   1.503       .  S
C1604      C1605   1.408       .  A
C1604      H1609   1.084       .  S
C1605      C1606   1.426   1_545  A
C1606      C1607   1.506       .  S
C1607      H1611   1.111       .  S
C1607      H1612   1.110       .  S
C1607      H1613   1.108       .  S
C1610      H1614   1.103       .  S
C1610      H1615   1.110       .  S
C1610      H1616   1.110       .  S
C1617      C1618   1.408       .  A
C1617      C1622   1.412       .  A
C1617      H1624   1.083       .  S
C1618      C1619   1.424   1_455  A
C1619      C1620   1.413       .  A
C1619      C1626   1.507       .  S
C1620      C1621   1.406   1_655  A
C1620      H1625   1.084       .  S
C1621      C1622   1.419       .  A
C1622      C1623   1.504       .  S
C1623      H1627   1.111       .  S
C1623      H1628   1.106       .  S
C1623      H1629   1.104       .  S
C1626      H1630   1.110       .  S
C1626      H1631   1.109       .  S
C1626      H1632   1.111       .  S
C1633      C1634   1.405       .  A
C1633      C1638   1.412       .  A
C1633      H1640   1.079       .  S
C1634      C1635   1.419   1_545  A
C1635      C1636   1.410       .  A
C1635      C1642   1.501       .  S
C1636      C1637   1.407   1_565  A
C1636      H1641   1.084       .  S
C1637      C1638   1.423       .  A
C1638      C1639   1.506       .  S
C1639      H1643   1.111       .  S
C1639      H1644   1.109       .  S
C1639      H1645   1.109       .  S
C1642      H1646   1.105       .  S
C1642      H1647   1.107       .  S
C1642      H1648   1.111       .  S
C1649      C1650   1.396       .  A
C1649      C1654   1.408       .  A
C1649      H1656   1.082       .  S
C1650      C1651   1.399       .  A
C1651      C1652   1.411   1_455  A
C1651      C1658   1.506   1_455  S
C1652      C1653   1.423   1_655  A
C1652      H1657   1.060       .  S
C1653      C1654   1.438       .  A
C1654      C1655   1.510       .  S
C1655      H1659   1.108       .  S
C1655      H1660   1.105   1_455  S
C1655      H1661   1.102       .  S
C1658      H1662   1.109       .  S
C1658      H1663   1.110   1_655  S
C1658      H1664   1.111       .  S
C1665      C1666   1.407       .  A
C1665      C1670   1.416       .  A
C1665      H1672   1.083       .  S
C1666      C1667   1.424   1_455  A
C1667      C1668   1.418       .  A
C1667      C1674   1.507       .  S
C1668      C1669   1.411   1_655  A
C1668      H1673   1.084       .  S
C1669      C1670   1.423       .  A
C1670      C1671   1.504       .  S
C1671      H1675   1.110       .  S
C1671      H1676   1.104       .  S
C1671      H1677   1.098       .  S
C1674      H1678   1.109       .  S
C1674      H1679   1.110       .  S
C1674      H1680   1.111       .  S
C1681      C1682   1.414       .  A
C1681      C1686   1.418       .  A
C1681      H1688   1.083       .  S
C1682      C1683   1.423       .  A
C1683      C1684   1.407       .  A
C1683      C1690   1.509       .  S
C1684      C1685   1.403       .  A
C1684      H1689   1.077       .  S
C1685      C1686   1.417       .  A
C1686      C1687   1.506       .  S
C1687      H1691   1.111       .  S
C1687      H1692   1.109       .  S
C1687      H1693   1.108       .  S
C1690      H1694   1.110       .  S
C1690      H1695   1.109       .  S
C1690      H1696   1.111       .  S
C1697      C1698   1.409       .  A
C1697      C1702   1.417       .  A
C1697      H1704   1.082       .  S
C1698      C1699   1.416       .  A
C1699      C1700   1.416       .  A
C1699      C1706   1.507       .  S
C1700      C1701   1.411       .  A
C1700      H1705   1.083       .  S
C1701      C1702   1.419       .  A
C1702      C1703   1.506       .  S
C1703      H1707   1.111       .  S
C1703      H1708   1.110       .  S
C1703      H1709   1.109       .  S
C1706      H1710   1.103       .  S
C1706      H1711   1.106       .  S
C1706      H1712   1.109       .  S
C1713      C1714   1.399   1_655  A
C1713      C1718   1.407       .  A
C1713      H1720   1.083       .  S
C1714      C1715   1.419       .  A
C1715      C1716   1.415       .  A
C1715      C1722   1.508       .  S
C1716      C1717   1.411       .  A
C1716      H1721   1.083       .  S
C1717      C1718   1.427   1_455  A
C1718      C1719   1.507       .  S
C1719      H1723   1.111       .  S
C1719      H1724   1.108       .  S
C1719      H1725   1.110       .  S
C1722      H1726   1.101       .  S
C1722      H1727   1.109       .  S
C1722      H1728   1.110       .  S
C1729      C1730   1.405       .  A
C1729      C1734   1.395       .  A
C1729      H1736   1.084       .  S
C1730      C1731   1.414       .  A
C1731      C1732   1.412       .  A
C1731      C1738   1.506       .  S
C1732      C1733   1.410       .  A
C1732      H1737   1.084       .  S
C1733      C1734   1.414       .  A
C1734      C1735   1.507       .  S
C1735      H1739   1.111       .  S
C1735      H1740   1.105       .  S
C1735      H1741   1.111       .  S
C1738      H1742   1.102       .  S
C1738      H1743   1.110       .  S
C1738      H1744   1.111       .  S
C1745      C1746   1.406       .  A
C1745      C1750   1.403       .  A
C1745      H1752   1.084       .  S
C1746      C1747   1.423   1_655  A
C1747      C1748   1.385       .  A
C1747      C1754   1.511       .  S
C1748      C1749   1.395   1_455  A
C1748      H1753   1.086       .  S
C1749      C1750   1.408       .  A
C1750      C1751   1.499       .  S
C1751      H1755   1.111       .  S
C1751      H1756   1.107       .  S
C1751      H1757   1.100       .  S
C1754      H1758   1.103       .  S
C1754      H1759   1.110       .  S
C1754      H1760   1.110       .  S
C1761      C1762   1.413       .  A
C1761      C1766   1.412       .  A
C1761      H1768   1.084       .  S
C1762      C1763   1.426       .  A
C1763      C1764   1.416       .  A
C1763      C1770   1.506   1_545  S
C1764      C1765   1.407       .  A
C1764      H1769   1.080   1_545  S
C1765      C1766   1.420       .  A
C1766      C1767   1.503       .  S
C1767      H1771   1.111       .  S
C1767      H1772   1.099       .  S
C1767      H1773   1.110       .  S
C1770      H1774   1.110       .  S
C1770      H1775   1.110       .  S
C1770      H1776   1.111       .  S
C1777      C1778   1.413       .  A
C1777      C1782   1.416       .  A
C1777      H1784   1.082       .  S
C1778      C1779   1.425       .  A
C1779      C1780   1.410       .  A
C1779      C1786   1.508       .  S
C1780      C1781   1.405       .  A
C1780      H1785   1.083       .  S
C1781      C1782   1.413       .  A
C1782      C1783   1.507       .  S
C1783      H1787   1.109       .  S
C1783      H1788   1.099       .  S
C1783      H1789   1.109       .  S
C1786      H1790   1.110       .  S
C1786      H1791   1.109       .  S
C1786      H1792   1.111       .  S
C1793      C1794   1.399       .  A
C1793      C1798   1.408       .  A
C1793      H1800   1.082       .  S
C1794      C1795   1.418       .  A
C1795      C1796   1.420       .  A
C1795      C1802   1.506       .  S
C1796      C1797   1.414       .  A
C1796      H1801   1.083       .  S
C1797      C1798   1.433       .  A
C1798      C1799   1.511       .  S
C1799      H1803   1.111       .  S
C1799      H1804   1.110       .  S
C1799      H1805   1.101       .  S
C1802      H1806   1.108       .  S
C1802      H1807   1.109       .  S
C1802      H1808   1.111       .  S
C1809      C1810   1.406       .  A
C1809      C1814   1.415       .  A
C1809      H1816   1.084       .  S
C1810      C1811   1.415   1_545  A
C1811      C1812   1.415       .  A
C1811      C1818   1.506       .  S
C1812      C1813   1.414   1_565  A
C1812      H1817   1.082       .  S
C1813      C1814   1.424       .  A
C1814      C1815   1.504       .  S
C1815      H1819   1.111       .  S
C1815      H1820   1.107       .  S
C1815      H1821   1.102       .  S
C1818      H1822   1.109       .  S
C1818      H1823   1.110       .  S
C1818      H1824   1.111       .  S
C1825      C1826   1.389       .  A
C1825      C1830   1.387       .  A
C1825      H1832   1.085       .  S
C1826      C1827   1.423       .  A
C1827      C1828   1.395       .  A
C1827      C1834   1.507       .  S
C1828      C1829   1.391       .  A
C1828      H1833   1.084       .  S
C1829      C1830   1.430       .  A
C1830      C1831   1.512       .  S
C1831      H1835   1.108       .  S
C1831      H1836   1.109       .  S
C1831      H1837   1.107       .  S
C1834      H1838   1.109       .  S
C1834      H1839   1.108       .  S
C1834      H1840   1.111       .  S
C1841      C1842   1.397       .  A
C1841      C1846   1.380       .  A
C1841      H1848   1.085   1_545  S
C1842      C1843   1.423       .  A
C1843      C1844   1.392       .  A
C1843      C1850   1.510       .  S
C1844      C1845   1.392       .  A
C1844      H1849   1.087       .  S
C1845      C1846   1.403       .  A
C1846      C1847   1.488       .  S
C1847      H1851   1.103       .  S
C1847      H1852   1.103       .  S
C1847      H1853   1.110   1_545  S
C1850      H1854   1.107       .  S
C1850      H1855   1.101       .  S
C1850      H1856   1.111       .  S
C1857      C1858   1.395       .  A
C1857      C1862   1.392       .  A
C1857      H1864   1.085       .  S
C1858      C1859   1.416       .  A
C1859      C1860   1.396       .  A
C1859      C1866   1.508       .  S
C1860      C1861   1.398       .  A
C1860      H1865   1.084       .  S
C1861      C1862   1.407       .  A
C1862      C1863   1.493       .  S
C1863      H1867   1.101       .  S
C1863      H1868   1.100       .  S
C1863      H1869   1.109   1_545  S
C1866      H1870   1.110       .  S
C1866      H1871   1.109       .  S
C1866      H1872   1.111       .  S
C1873      C1874   1.403       .  A
C1873      C1878   1.420       .  A
C1873      H1880   1.084       .  S
C1874      C1875   1.410       .  A
C1875      C1876   1.398       .  A
C1875      C1882   1.499       .  S
C1876      C1877   1.407       .  A
C1876      H1881   1.081       .  S
C1877      C1878   1.431       .  A
C1878      C1879   1.501       .  S
C1879      H1883   1.111       .  S
C1879      H1884   1.108       .  S
C1879      H1885   1.108       .  S
C1882      H1886   1.110       .  S
C1882      H1887   1.100       .  S
C1882      H1888   1.105       .  S
C1889      C1890   1.401   1_545  A
C1889      C1894   1.406       .  A
C1889      H1896   1.081       .  S
C1890      C1891   1.423       .  A
C1891      C1892   1.410       .  A
C1891      C1898   1.501       .  S
C1892      C1893   1.404   1_565  A
C1892      H1897   1.084       .  S
C1893      C1894   1.424       .  A
C1894      C1895   1.508       .  S
C1895      H1899   1.108       .  S
C1895      H1900   1.108       .  S
C1895      H1901   1.111       .  S
C1898      H1902   1.099       .  S
C1898      H1903   1.110       .  S
C1898      H1904   1.110       .  S
C1905      C1906   1.413       .  A
C1905      C1910   1.416       .  A
C1905      H1912   1.083   1_545  S
C1906      C1907   1.420       .  A
C1907      C1908   1.410       .  A
C1907      C1914   1.507       .  S
C1908      C1909   1.408       .  A
C1908      H1913   1.083       .  S
C1909      C1910   1.414       .  A
C1910      C1911   1.511   1_545  S
C1911      H1915   1.110       .  S
C1911      H1916   1.100       .  S
C1911      H1917   1.105       .  S
C1914      H1918   1.110       .  S
C1914      H1919   1.109       .  S
C1914      H1920   1.111       .  S
C1921      C1922   1.403       .  A
C1921      C1926   1.410       .  A
C1921      H1928   1.079       .  S
C1922      C1923   1.418       .  A
C1923      C1924   1.412       .  A
C1923      C1930   1.501       .  S
C1924      C1925   1.409       .  A
C1924      H1929   1.083       .  S
C1925      C1926   1.424       .  A
C1926      C1927   1.508       .  S
C1927      H1931   1.111       .  S
C1927      H1932   1.109       .  S
C1927      H1933   1.110       .  S
C1930      H1934   1.107       .  S
C1930      H1935   1.105       .  S
C1930      H1936   1.111       .  S
C1937      C1938   1.402       .  A
C1937      C1942   1.398       .  A
C1937      H1944   1.084       .  S
C1938      C1939   1.407       .  A
C1939      C1940   1.388       .  A
C1939      C1946   1.508       .  S
C1940      C1941   1.400       .  A
C1940      H1945   1.085       .  S
C1941      C1942   1.406       .  A
C1942      C1943   1.498       .  S
C1943      H1947   1.111       .  S
C1943      H1948   1.107       .  S
C1943      H1949   1.110       .  S
C1946      H1950   1.107       .  S
C1946      H1951   1.111       .  S
C1946      H1952   1.111       .  S
C1953      C1954   1.396       .  A
C1953      C1958   1.400       .  A
C1953      H1960   1.086       .  S
C1954      C1955   1.410       .  A
C1955      C1956   1.388       .  A
C1955      C1962   1.508       .  S
C1956      C1957   1.395       .  A
C1956      H1961   1.077       .  S
C1957      C1958   1.419       .  A
C1958      C1959   1.501       .  S
C1959      H1963   1.101       .  S
C1959      H1964   1.109       .  S
C1959      H1965   1.110       .  S
C1962      H1966   1.110       .  S
C1962      H1967   1.106       .  S
C1962      H1968   1.111       .  S
C1969      C1970   1.402       .  A
C1969      C1974   1.389       .  A
C1969      H1976   1.086       .  S
C1970      C1971   1.406       .  A
C1971      C1972   1.401       .  A
C1971      C1978   1.497       .  S
C1972      C1973   1.408       .  A
C1972      H1977   1.084       .  S
C1973      C1974   1.414       .  A
C1974      C1975   1.513   1_545  S
C1975      H1979   1.110       .  S
C1975      H1980   1.110       .  S
C1975      H1981   1.106       .  S
C1978      H1982   1.110       .  S
C1978      H1983   1.110       .  S
C1978      H1984   1.111       .  S
C1985      C1986   1.406       .  A
C1985      C1990   1.418       .  A
C1985      H1992   1.082       .  S
C1986      C1987   1.421       .  A
C1987      C1988   1.413       .  A
C1987      C1994   1.503       .  S
C1988      C1989   1.410       .  A
C1988      H1993   1.084       .  S
C1989      C1990   1.428       .  A
C1990      C1991   1.506       .  S
C1991      H1995   1.111       .  S
C1991      H1996   1.109       .  S
C1991      H1997   1.110       .  S
C1994      H1998   1.110       .  S
C1994      H1999   1.103       .  S
C1994      H2000   1.111       .  S
C2001      C2002   1.409       .  A
C2001      C2006   1.409       .  A
C2001      H2008   1.084       .  S
C2002      C2003   1.426   1_455  A
C2003      C2004   1.415       .  A
C2003      C2010   1.509       .  S
C2004      C2005   1.404   1_655  A
C2004      H2009   1.083       .  S
C2005      C2006   1.421       .  A
C2006      C2007   1.505       .  S
C2007      H2011   1.110       .  S
C2007      H2012   1.104       .  S
C2007      H2013   1.110       .  S
C2010      H2014   1.106       .  S
C2010      H2015   1.110       .  S
C2010      H2016   1.111       .  S
C2017      C2018   1.413       .  A
C2017      C2022   1.411       .  A
C2017      H2024   1.079   1_455  S
C2018      C2019   1.420       .  A
C2019      C2020   1.411       .  A
C2019      C2026   1.505       .  S
C2020      C2021   1.408       .  A
C2020      H2025   1.085       .  S
C2021      C2022   1.413       .  A
C2022      C2023   1.507   1_455  S
C2023      H2027   1.111       .  S
C2023      H2028   1.110       .  S
C2023      H2029   1.109       .  S
C2026      H2030   1.110       .  S
C2026      H2031   1.100       .  S
C2026      H2032   1.108       .  S
C2033      C2034   1.403       .  A
C2033      C2038   1.413       .  A
C2033      H2040   1.084       .  S
C2034      C2035   1.428       .  A
C2035      C2036   1.406       .  A
C2035      C2042   1.507       .  S
C2036      C2037   1.397       .  A
C2036      H2041   1.083       .  S
C2037      C2038   1.425       .  A
C2038      C2039   1.502       .  S
C2039      H2043   1.110       .  S
C2039      H2044   1.110       .  S
C2039      H2045   1.102       .  S
C2042      H2046   1.108       .  S
C2042      H2047   1.103       .  S
C2042      H2048   1.111       .  S
C2049      C2050   1.396       .  A
C2049      C2054   1.390       .  A
C2049      H2056   1.086       .  S
C2050      C2051   1.404       .  A
C2051      C2052   1.401       .  A
C2051      C2058   1.498       .  S
C2052      C2053   1.406       .  A
C2052      H2057   1.085       .  S
C2053      C2054   1.419       .  A
C2054      C2055   1.507       .  S
C2055      H2059   1.111       .  S
C2055      H2060   1.110       .  S
C2055      H2061   1.095       .  S
C2058      H2062   1.110       .  S
C2058      H2063   1.103       .  S
C2058      H2064   1.109       .  S
C2065      C2066   1.387       .  A
C2065      C2070   1.382       .  A
C2065      H2072   1.085       .  S
C2066      C2067   1.408       .  A
C2067      C2068   1.397       .  A
C2067      C2074   1.503       .  S
C2068      C2069   1.401       .  A
C2068      H2073   1.085       .  S
C2069      C2070   1.401       .  A
C2070      C2071   1.485       .  S
C2071      H2075   1.106       .  S
C2071      H2076   1.104       .  S
C2071      H2077   1.108       .  S
C2074      H2078   1.105       .  S
C2074      H2079   1.110       .  S
C2074      H2080   1.111       .  S
C2081      C2082   1.408       .  A
C2081      C2086   1.391       .  A
C2081      H2088   1.084       .  S
C2082      C2083   1.405   1_455  A
C2083      C2084   1.396       .  A
C2083      C2090   1.507       .  S
C2084      C2085   1.414   1_655  A
C2084      H2089   1.083       .  S
C2085      C2086   1.409       .  A
C2086      C2087   1.510       .  S
C2087      H2091   1.111       .  S
C2087      H2092   1.111       .  S
C2087      H2093   1.110       .  S
C2090      H2094   1.110       .  S
C2090      H2095   1.111       .  S
C2090      H2096   1.111       .  S
C2097      C2098   1.404       .  A
C2097      C2102   1.397       .  A
C2097      H2104   1.085       .  S
C2098      C2099   1.402   1_455  A
C2099      C2100   1.391       .  A
C2099      C2106   1.509       .  S
C2100      C2101   1.410   1_655  A
C2100      H2105   1.083       .  S
C2101      C2102   1.413       .  A
C2102      C2103   1.508       .  S
C2103      H2107   1.110       .  S
C2103      H2108   1.110       .  S
C2103      H2109   1.110       .  S
C2106      H2110   1.110       .  S
C2106      H2111   1.110       .  S
C2106      H2112   1.111       .  S
C2113      C2114   1.399       .  A
C2113      C2118   1.410       .  A
C2113      H2120   1.078       .  S
C2114      C2115   1.419   1_556  A
C2115      C2116   1.419       .  A
C2115      C2122   1.503       .  S
C2116      C2117   1.412   1_554  A
C2116      H2121   1.083       .  S
C2117      C2118   1.431       .  A
C2118      C2119   1.510       .  S
C2119      H2123   1.111       .  S
C2119      H2124   1.109       .  S
C2119      H2125   1.110       .  S
C2122      H2126   1.108       .  S
C2122      H2127   1.106       .  S
C2122      H2128   1.110       .  S
C2129      C2130   1.413       .  A
C2129      C2134   1.424       .  A
C2129      H2136   1.082       .  S
C2130      C2131   1.424   1_556  A
C2131      C2132   1.409       .  A
C2131      C2138   1.500       .  S
C2132      C2133   1.407   1_554  A
C2132      H2137   1.085       .  S
C2133      C2134   1.423       .  A
C2134      C2135   1.505       .  S
C2135      H2139   1.111       .  S
C2135      H2140   1.110       .  S
C2135      H2141   1.109       .  S
C2138      H2142   1.108       .  S
C2138      H2143   1.091       .  S
C2138      H2144   1.110       .  S
C2145      C2146   1.407       .  A
C2145      C2150   1.407       .  A
C2145      H2152   1.084   1_545  S
C2146      C2147   1.424       .  A
C2147      C2148   1.418       .  A
C2147      C2154   1.507       .  S
C2148      C2149   1.409       .  A
C2148      H2153   1.081       .  S
C2149      C2150   1.422       .  A
C2150      C2151   1.500   1_545  S
C2151      H2155   1.110       .  S
C2151      H2156   1.111       .  S
C2151      H2157   1.089       .  S
C2154      H2158   1.110       .  S
C2154      H2159   1.109       .  S
C2154      H2160   1.111       .  S
C2161      C2162   1.409       .  A
C2161      C2166   1.414       .  A
C2161      H2168   1.084       .  S
C2162      C2163   1.432   1_545  A
C2163      C2164   1.413       .  A
C2163      C2170   1.509       .  S
C2164      C2165   1.401   1_565  A
C2164      H2169   1.082       .  S
C2165      C2166   1.423       .  A
C2166      C2167   1.502       .  S
C2167      H2171   1.110       .  S
C2167      H2172   1.111       .  S
C2167      H2173   1.101       .  S
C2170      H2174   1.110       .  S
C2170      H2175   1.106       .  S
C2170      H2176   1.111       .  S
C2177      C2178   1.413   1_554  A
C2177      C2182   1.412       .  A
C2177      H2184   1.083       .  S
C2178      C2179   1.426       .  A
C2179      C2180   1.413       .  A
C2179      C2186   1.506       .  S
C2180      C2181   1.404       .  A
C2180      H2185   1.080       .  S
C2181      C2182   1.414   1_556  A
C2182      C2183   1.503       .  S
C2183      H2187   1.111       .  S
C2183      H2188   1.109       .  S
C2183      H2189   1.107       .  S
C2186      H2190   1.110       .  S
C2186      H2191   1.110       .  S
C2186      H2192   1.111       .  S
C2193      C2194   1.416       .  A
C2193      C2198   1.418       .  A
C2193      H2200   1.079       .  S
C2194      C2195   1.422   1_556  A
C2195      C2196   1.411   1_554  A
C2195      C2202   1.501       .  S
C2196      C2197   1.406       .  A
C2196      H2201   1.083   1_556  S
C2197      C2198   1.415       .  A
C2198      C2199   1.505       .  S
C2199      H2203   1.111       .  S
C2199      H2204   1.110       .  S
C2199      H2205   1.109       .  S
C2202      H2206   1.102       .  S
C2202      H2207   1.107       .  S
C2202      H2208   1.111       .  S
C2209      C2210   1.407   1_565  A
C2209      C2214   1.415       .  A
C2209      H2216   1.077       .  S
C2210      C2211   1.413       .  A
C2211      C2212   1.411       .  A
C2211      C2218   1.506       .  S
C2212      C2213   1.414       .  A
C2212      H2217   1.083       .  S
C2213      C2214   1.420   1_545  A
C2214      C2215   1.506       .  S
C2215      H2219   1.111       .  S
C2215      H2220   1.110       .  S
C2215      H2221   1.109       .  S
C2218      H2222   1.104       .  S
C2218      H2223   1.108       .  S
C2218      H2224   1.110       .  S
C2225      C2226   1.407   1_565  A
C2225      C2230   1.409       .  A
C2225      H2232   1.084       .  S
C2226      C2227   1.423       .  A
C2227      C2228   1.406       .  A
C2227      C2234   1.507       .  S
C2228      C2229   1.399       .  A
C2228      H2233   1.080       .  S
C2229      C2230   1.419   1_545  A
C2230      C2231   1.506       .  S
C2231      H2235   1.110       .  S
C2231      H2236   1.111       .  S
C2231      H2237   1.106       .  S
C2234      H2238   1.109       .  S
C2234      H2239   1.105       .  S
C2234      H2240   1.111       .  S
C2241      C2242   1.411       .  A
C2241      C2246   1.409       .  A
C2241      H2248   1.083       .  S
C2242      C2243   1.424       .  A
C2243      C2244   1.422       .  A
C2243      C2250   1.505       .  S
C2244      C2245   1.411       .  A
C2244      H2249   1.083       .  S
C2245      C2246   1.415       .  A
C2246      C2247   1.501       .  S
C2247      H2251   1.111       .  S
C2247      H2252   1.107       .  S
C2247      H2253   1.102       .  S
C2250      H2254   1.110       .  S
C2250      H2255   1.110       .  S
C2250      H2256   1.111       .  S
C2257      C2258   1.412       .  A
C2257      C2262   1.419       .  A
C2257      H2264   1.083       .  S
C2258      C2259   1.423       .  A
C2259      C2260   1.412       .  A
C2259      C2266   1.508       .  S
C2260      C2261   1.406       .  A
C2260      H2265   1.081       .  S
C2261      C2262   1.416       .  A
C2262      C2263   1.505       .  S
C2263      H2267   1.110       .  S
C2263      H2268   1.108       .  S
C2263      H2269   1.106       .  S
C2266      H2270   1.110       .  S
C2266      H2271   1.109       .  S
C2266      H2272   1.111       .  S
C2273      C2274   1.406   1_565  A
C2273      C2278   1.413       .  A
C2273      H2280   1.078       .  S
C2274      C2275   1.417       .  A
C2275      C2276   1.410       .  A
C2275      C2282   1.503       .  S
C2276      C2277   1.408       .  A
C2276      H2281   1.083       .  S
C2277      C2278   1.425   1_545  A
C2278      C2279   1.508       .  S
C2279      H2283   1.111       .  S
C2279      H2284   1.110       .  S
C2279      H2285   1.109       .  S
C2282      H2286   1.101       .  S
C2282      H2287   1.107       .  S
C2282      H2288   1.111       .  S
C2289      C2290   1.409   1_545  A
C2289      C2294   1.415       .  A
C2289      H2296   1.083       .  S
C2290      C2291   1.428       .  A
C2291      C2292   1.414       .  A
C2291      C2298   1.509       .  S
C2292      C2293   1.404   1_565  A
C2292      H2297   1.081       .  S
C2293      C2294   1.421       .  A
C2294      C2295   1.501       .  S
C2295      H2299   1.111       .  S
C2295      H2300   1.107       .  S
C2295      H2301   1.104       .  S
C2298      H2302   1.109       .  S
C2298      H2303   1.110       .  S
C2298      H2304   1.111       .  S
C2305      C2306   1.411       .  A
C2305      C2310   1.393       .  A
C2305      H2312   1.083       .  S
C2306      C2307   1.417   1_545  A
C2307      C2308   1.402   1_565  A
C2307      C2314   1.507       .  S
C2308      C2309   1.408       .  A
C2308      H2313   1.083   1_545  S
C2309      C2310   1.409       .  A
C2310      C2311   1.507       .  S
C2311      H2315   1.111       .  S
C2311      H2316   1.111       .  S
C2311      H2317   1.110       .  S
C2314      H2318   1.110       .  S
C2314      H2319   1.107       .  S
C2314      H2320   1.111       .  S
C2321      C2322   1.394       .  A
C2321      C2326   1.387       .  A
C2321      H2328   1.085       .  S
C2322      C2323   1.408       .  A
C2323      C2324   1.397       .  A
C2323      C2330   1.508       .  S
C2324      C2325   1.400       .  A
C2324      H2329   1.084       .  S
C2325      C2326   1.405       .  A
C2326      C2327   1.501   1_565  S
C2327      H2331   1.111       .  S
C2327      H2332   1.099       .  S
C2327      H2333   1.110       .  S
C2330      H2334   1.110       .  S
C2330      H2335   1.110       .  S
C2330      H2336   1.111       .  S
C2337      C2338   1.407   1_554  A
C2337      C2342   1.416       .  A
C2337      H2344   1.084       .  S
C2338      C2339   1.423       .  A
C2339      C2340   1.407       .  A
C2339      C2346   1.506       .  S
C2340      C2341   1.400       .  A
C2340      H2345   1.082       .  S
C2341      C2342   1.423   1_556  A
C2342      C2343   1.503       .  S
C2343      H2347   1.110       .  S
C2343      H2348   1.110       .  S
C2343      H2349   1.104       .  S
C2346      H2350   1.109       .  S
C2346      H2351   1.103       .  S
C2346      H2352   1.111       .  S
C2353      C2354   1.407   1_554  A
C2353      C2358   1.413       .  A
C2353      H2360   1.084       .  S
C2354      C2355   1.430       .  A
C2355      C2356   1.415       .  A
C2355      C2362   1.509       .  S
C2356      C2357   1.403       .  A
C2356      H2361   1.081       .  S
C2357      C2358   1.427   1_556  A
C2358      C2359   1.503       .  S
C2359      H2363   1.110       .  S
C2359      H2364   1.100       .  S
C2359      H2365   1.110       .  S
C2362      H2366   1.107       .  S
C2362      H2367   1.110       .  S
C2362      H2368   1.111       .  S
C2369      C2370   1.410       .  A
C2369      C2374   1.413       .  A
C2369      H2376   1.081       .  S
C2370      C2371   1.418       .  A
C2371      C2372   1.412       .  A
C2371      C2378   1.503       .  S
C2372      C2373   1.408       .  A
C2372      H2377   1.084       .  S
C2373      C2374   1.419       .  A
C2374      C2375   1.507       .  S
C2375      H2379   1.111       .  S
C2375      H2380   1.110       .  S
C2375      H2381   1.109       .  S
C2378      H2382   1.110       .  S
C2378      H2383   1.107       .  S
C2378      H2384   1.111       .  S
C2385      C2386   1.408       .  A
C2385      C2390   1.411       .  A
C2385      H2392   1.084       .  S
C2386      C2387   1.431       .  A
C2387      C2388   1.414       .  A
C2387      C2394   1.509       .  S
C2388      C2389   1.402       .  A
C2388      H2393   1.082       .  S
C2389      C2390   1.424       .  A
C2390      C2391   1.503       .  S
C2391      H2395   1.110       .  S
C2391      H2396   1.110       .  S
C2391      H2397   1.101       .  S
C2394      H2398   1.110       .  S
C2394      H2399   1.107       .  S
C2394      H2400   1.111       .  S
C2401      C2402   1.402       .  A
C2401      C2406   1.396       .  A
C2401      H2408   1.085       .  S
C2402      C2403   1.405       .  A
C2403      C2404   1.397       .  A
C2403      C2410   1.509       .  S
C2404      C2405   1.413       .  A
C2404      H2409   1.082       .  S
C2405      C2406   1.415       .  A
C2406      C2407   1.505       .  S
C2407      H2411   1.111       .  S
C2407      H2412   1.104       .  S
C2407      H2413   1.104       .  S
C2410      H2414   1.109       .  S
C2410      H2415   1.111       .  S
C2410      H2416   1.111       .  S
C2417      C2418   1.392       .  A
C2417      C2422   1.383       .  A
C2417      H2424   1.086       .  S
C2418      C2419   1.400       .  A
C2419      C2420   1.397       .  A
C2419      C2426   1.488       .  S
C2420      C2421   1.398       .  A
C2420      H2425   1.079       .  S
C2421      C2422   1.412       .  A
C2422      C2423   1.500       .  S
C2423      H2427   1.111       .  S
C2423      H2428   1.103       .  S
C2423      H2429   1.099       .  S
C2426      H2430   1.099       .  S
C2426      H2431   1.110       .  S
C2426      H2432   1.108       .  S
C2433      C2434   1.398   1_556  A
C2433      C2438   1.377       .  A
C2433      H2440   1.085       .  S
C2434      C2435   1.415       .  A
C2435      C2436   1.410       .  A
C2435      C2442   1.501       .  S
C2436      C2437   1.406   1_554  A
C2436      H2441   1.083       .  S
C2437      C2438   1.401       .  A
C2438      C2439   1.489       .  S
C2439      H2443   1.111       .  S
C2439      H2444   1.109       .  S
C2439      H2445   1.108       .  S
C2442      H2446   1.104       .  S
C2442      H2447   1.103       .  S
C2442      H2448   1.110       .  S
C2449      C2450   1.398       .  A
C2449      C2454   1.403       .  A
C2449      H2456   1.085   1_545  S
C2450      C2451   1.422       .  A
C2451      C2452   1.417       .  A
C2451      C2458   1.506       .  S
C2452      C2453   1.409       .  A
C2452      H2457   1.081       .  S
C2453      C2454   1.429       .  A
C2454      C2455   1.496   1_545  S
C2455      H2459   1.111       .  S
C2455      H2460   1.083       .  S
C2455      H2461   1.110       .  S
C2458      H2462   1.107       .  S
C2458      H2463   1.110       .  S
C2458      H2464   1.111       .  S
C2465      C2466   1.403       .  A
C2465      C2470   1.410       .  A
C2465      H2472   1.080       .  S
C2466      C2467   1.414       .  A
C2467      C2468   1.415       .  A
C2467      C2474   1.505   1_545  S
C2468      C2469   1.411       .  A
C2468      H2473   1.083   1_545  S
C2469      C2470   1.425       .  A
C2470      C2471   1.509       .  S
C2471      H2475   1.111       .  S
C2471      H2476   1.110       .  S
C2471      H2477   1.109       .  S
C2474      H2478   1.107       .  S
C2474      H2479   1.107       .  S
C2474      H2480   1.111       .  S
C2481      C2482   1.411       .  A
C2481      C2486   1.409       .  A
C2481      H2488   1.084       .  S
C2482      C2483   1.424       .  A
C2483      C2484   1.413       .  A
C2483      C2490   1.507       .  S
C2484      C2485   1.406       .  A
C2484      H2489   1.081       .  S
C2485      C2486   1.419       .  A
C2486      C2487   1.507       .  S
C2487      H2491   1.110       .  S
C2487      H2492   1.105       .  S
C2487      H2493   1.108       .  S
C2490      H2494   1.110       .  S
C2490      H2495   1.109       .  S
C2490      H2496   1.111       .  S
C2497      C2498   1.405       .  A
C2497      C2502   1.417       .  A
C2497      H2504   1.084       .  S
C2498      C2499   1.425       .  A
C2499      C2500   1.409       .  A
C2499      C2506   1.496       .  S
C2500      C2501   1.402       .  A
C2500      H2505   1.085       .  S
C2501      C2502   1.424       .  A
C2502      C2503   1.508       .  S
C2503      H2507   1.111       .  S
C2503      H2508   1.110       .  S
C2503      H2509   1.107       .  S
C2506      H2510   1.091       .  S
C2506      H2511   1.111       .  S
C2506      H2512   1.111       .  S
C2513      C2514   1.404       .  A
C2513      C2518   1.406       .  A
C2513      H2520   1.082       .  S
C2514      C2515   1.409       .  A
C2515      C2516   1.383       .  A
C2515      C2522   1.509       .  S
C2516      C2517   1.392       .  A
C2516      H2521   1.079       .  S
C2517      C2518   1.406       .  A
C2518      C2519   1.496       .  S
C2519      H2523   1.100       .  S
C2519      H2524   1.106       .  S
C2519      H2525   1.110       .  S
C2522      H2526   1.100       .  S
C2522      H2527   1.111       .  S
C2522      H2528   1.111       .  S
C2529      C2530   1.405       .  A
C2529      C2534   1.401       .  A
C2529      H2536   1.084       .  S
C2530      C2531   1.417       .  A
C2531      C2532   1.390       .  A
C2531      C2538   1.509   1_545  S
C2532      C2533   1.398       .  A
C2532      H2537   1.085   1_545  S
C2533      C2534   1.409       .  A
C2534      C2535   1.504       .  S
C2535      H2539   1.111       .  S
C2535      H2540   1.106       .  S
C2535      H2541   1.109       .  S
C2538      H2542   1.109       .  S
C2538      H2543   1.105       .  S
C2538      H2544   1.110       .  S
C2545      C2546   1.399       .  A
C2545      C2550   1.380       .  A
C2545      H2552   1.086       .  S
C2546      C2547   1.416       .  A
C2547      C2548   1.411       .  A
C2547      C2554   1.501   1_545  S
C2548      C2549   1.409       .  A
C2548      H2553   1.082       .  S
C2549      C2550   1.409       .  A
C2550      C2551   1.490       .  S
C2551      H2555   1.111       .  S
C2551      H2556   1.088       .  S
C2551      H2557   1.110       .  S
C2554      H2558   1.102       .  S
C2554      H2559   1.102       .  S
C2554      H2560   1.110       .  S
C2561      C2562   1.406   1_554  A
C2561      C2566   1.412       .  A
C2561      H2568   1.084       .  S
C2562      C2563   1.422       .  A
C2563      C2564   1.413       .  A
C2563      C2570   1.506       .  S
C2564      C2565   1.405       .  A
C2564      H2569   1.084       .  S
C2565      C2566   1.422   1_556  A
C2566      C2567   1.504       .  S
C2567      H2571   1.110       .  S
C2567      H2572   1.110       .  S
C2567      H2573   1.103       .  S
C2570      H2574   1.109       .  S
C2570      H2575   1.107       .  S
C2570      H2576   1.111       .  S
C2577      C2578   1.407   1_554  A
C2577      C2582   1.416       .  A
C2577      H2584   1.084       .  S
C2578      C2579   1.431       .  A
C2579      C2580   1.420       .  A
C2579      C2586   1.508       .  S
C2580      C2581   1.406       .  A
C2580      H2585   1.082       .  S
C2581      C2582   1.429   1_556  A
C2582      C2583   1.501       .  S
C2583      H2587   1.110       .  S
C2583      H2588   1.094       .  S
C2583      H2589   1.111       .  S
C2586      H2590   1.104       .  S
C2586      H2591   1.110       .  S
C2586      H2592   1.111       .  S
C2593      C2594   1.411       .  A
C2593      C2598   1.416       .  A
C2593      H2600   1.084       .  S
C2594      C2595   1.420       .  A
C2595      C2596   1.415       .  A
C2595      C2602   1.507       .  S
C2596      C2597   1.408       .  A
C2596      H2601   1.081       .  S
C2597      C2598   1.415       .  A
C2598      C2599   1.505       .  S
C2599      H2603   1.110       .  S
C2599      H2604   1.109       .  S
C2599      H2605   1.108       .  S
C2602      H2606   1.110       .  S
C2602      H2607   1.109       .  S
C2602      H2608   1.111       .  S
C2609      C2610   1.411       .  A
C2609      C2614   1.410       .  A
C2609      H2616   1.083       .  S
C2610      C2611   1.422       .  A
C2611      C2612   1.419       .  A
C2611      C2618   1.505       .  S
C2612      C2613   1.411       .  A
C2612      H2617   1.083       .  S
C2613      C2614   1.419       .  A
C2614      C2615   1.504       .  S
C2615      H2619   1.107       .  S
C2615      H2620   1.108       .  S
C2615      H2621   1.099       .  S
C2618      H2622   1.110       .  S
C2618      H2623   1.110       .  S
C2618      H2624   1.111       .  S
C2625      C2626   1.398       .  A
C2625      C2630   1.386       .  A
C2625      H2632   1.086       .  S
C2626      C2627   1.411       .  A
C2627      C2628   1.401       .  A
C2627      C2634   1.504       .  S
C2628      C2629   1.404       .  A
C2628      H2633   1.084       .  S
C2629      C2630   1.412       .  A
C2630      C2631   1.505       .  S
C2631      H2635   1.110       .  S
C2631      H2636   1.103       .  S
C2631      H2637   1.110       .  S
C2634      H2638   1.108       .  S
C2634      H2639   1.098       .  S
C2634      H2640   1.111       .  S
C2641      C2642   1.407       .  A
C2641      C2646   1.387       .  A
C2641      H2648   1.084       .  S
C2642      C2643   1.405       .  A
C2643      C2644   1.393       .  A
C2643      C2650   1.507       .  S
C2644      C2645   1.407       .  A
C2644      H2649   1.085       .  S
C2645      C2646   1.404       .  A
C2646      C2647   1.509       .  S
C2647      H2651   1.111       .  S
C2647      H2652   1.110       .  S
C2647      H2653   1.109       .  S
C2650      H2654   1.110       .  S
C2650      H2655   1.106       .  S
C2650      H2656   1.111       .  S
C2657      C2658   1.401       .  A
C2657      C2662   1.400       .  A
C2657      H2664   1.085       .  S
C2658      C2659   1.411   1_554  A
C2659      C2660   1.392       .  A
C2659      C2666   1.506       .  S
C2660      C2661   1.397   1_556  A
C2660      H2665   1.085       .  S
C2661      C2662   1.409       .  A
C2662      C2663   1.506       .  S
C2663      H2667   1.111       .  S
C2663      H2668   1.110       .  S
C2663      H2669   1.106       .  S
C2666      H2670   1.110       .  S
C2666      H2671   1.107       .  S
C2666      H2672   1.107       .  S
C2673      C2674   1.408   1_554  A
C2673      C2678   1.393       .  A
C2673      H2680   1.083       .  S
C2674      C2675   1.412       .  A
C2675      C2676   1.378       .  A
C2675      C2682   1.505       .  S
C2676      C2677   1.396       .  A
C2676      H2681   1.084       .  S
C2677      C2678   1.396   1_556  A
C2678      C2679   1.497       .  S
C2679      H2683   1.111       .  S
C2679      H2684   1.110       .  S
C2679      H2685   1.104       .  S
C2682      H2686   1.110       .  S
C2682      H2687   1.092       .  S
C2682      H2688   1.111       .  S
C2689      C2690   1.411   1_554  A
C2689      C2694   1.406       .  A
C2689      H2696   1.084       .  S
C2690      C2691   1.423       .  A
C2691      C2692   1.418       .  A
C2691      C2698   1.506       .  S
C2692      C2693   1.409       .  A
C2692      H2697   1.080       .  S
C2693      C2694   1.418   1_556  A
C2694      C2695   1.503       .  S
C2695      H2699   1.110       .  S
C2695      H2700   1.098       .  S
C2695      H2701   1.110       .  S
C2698      H2702   1.110       .  S
C2698      H2703   1.110       .  S
C2698      H2704   1.111       .  S
C2705      C2706   1.409   1_554  A
C2705      C2710   1.418       .  A
C2705      H2712   1.083       .  S
C2706      C2707   1.413       .  A
C2707      C2708   1.405       .  A
C2707      C2714   1.503       .  S
C2708      C2709   1.411       .  A
C2708      H2713   1.083       .  S
C2709      C2710   1.421   1_556  A
C2710      C2711   1.505       .  S
C2711      H2715   1.111       .  S
C2711      H2716   1.108       .  S
C2711      H2717   1.110       .  S
C2714      H2718   1.103       .  S
C2714      H2719   1.104       .  S
C2714      H2720   1.111       .  S
C2721      C2722   1.410       .  A
C2721      C2726   1.417       .  A
C2721      H2728   1.082   1_455  S
C2722      C2723   1.420       .  A
C2723      C2724   1.411       .  A
C2723      C2730   1.502       .  S
C2724      C2725   1.409       .  A
C2724      H2729   1.083       .  S
C2725      C2726   1.424       .  A
C2726      C2727   1.506   1_455  S
C2727      H2731   1.111       .  S
C2727      H2732   1.110       .  S
C2727      H2733   1.109       .  S
C2730      H2734   1.106       .  S
C2730      H2735   1.107       .  S
C2730      H2736   1.111       .  S
C2737      C2738   1.413       .  A
C2737      C2742   1.411       .  A
C2737      H2744   1.074       .  S
C2738      C2739   1.420   1_455  A
C2739      C2740   1.409       .  A
C2739      C2746   1.495       .  S
C2740      C2741   1.403   1_655  A
C2740      H2745   1.083       .  S
C2741      C2742   1.416       .  A
C2742      C2743   1.506       .  S
C2743      H2747   1.111       .  S
C2743      H2748   1.111       .  S
C2743      H2749   1.106       .  S
C2746      H2750   1.099       .  S
C2746      H2751   1.109       .  S
C2746      H2752   1.098       .  S
C2753      C2754   1.410       .  A
C2753      C2758   1.413       .  A
C2753      H2760   1.084       .  S
C2754      C2755   1.425   1_556  A
C2755      C2756   1.415       .  A
C2755      C2762   1.507       .  S
C2756      C2757   1.405   1_554  A
C2756      H2761   1.081       .  S
C2757      C2758   1.417       .  A
C2758      C2759   1.504       .  S
C2759      H2763   1.111       .  S
C2759      H2764   1.105       .  S
C2759      H2765   1.101       .  S
C2762      H2766   1.110       .  S
C2762      H2767   1.110       .  S
C2762      H2768   1.111       .  S
C2769      C2770   1.409   1_455  A
C2769      C2774   1.408       .  A
C2769      H2776   1.084       .  S
C2770      C2771   1.418       .  A
C2771      C2772   1.419       .  A
C2771      C2778   1.505       .  S
C2772      C2773   1.412   1_655  A
C2772      H2777   1.083       .  S
C2773      C2774   1.418       .  A
C2774      C2775   1.504       .  S
C2775      H2779   1.107       .  S
C2775      H2780   1.110       .  S
C2775      H2781   1.098       .  S
C2778      H2782   1.109       .  S
C2778      H2783   1.110       .  S
C2778      H2784   1.111       .  S
C2785      C2786   1.411       .  A
C2785      C2790   1.415       .  A
C2785      H2792   1.076       .  S
C2786      C2787   1.415   1_556  A
C2787      C2788   1.408       .  A
C2787      C2794   1.502       .  S
C2788      C2789   1.412   1_554  A
C2788      H2793   1.083       .  S
C2789      C2790   1.420       .  A
C2790      C2791   1.508       .  S
C2791      H2795   1.111       .  S
C2791      H2796   1.107       .  S
C2791      H2797   1.110       .  S
C2794      H2798   1.104       .  S
C2794      H2799   1.103       .  S
C2794      H2800   1.111       .  S
C2801      C2802   1.408   1_655  A
C2801      C2806   1.410       .  A
C2801      H2808   1.083       .  S
C2802      C2803   1.426       .  A
C2803      C2804   1.417       .  A
C2803      C2810   1.507       .  S
C2804      C2805   1.406       .  A
C2804      H2809   1.084       .  S
C2805      C2806   1.419   1_455  A
C2806      C2807   1.505       .  S
C2807      H2811   1.111       .  S
C2807      H2812   1.105       .  S
C2807      H2813   1.109       .  S
C2810      H2814   1.109       .  S
C2810      H2815   1.110       .  S
C2810      H2816   1.111       .  S
C2817      C2818   1.419       .  A
C2817      C2822   1.414       .  A
C2817      H2824   1.083       .  S
C2818      C2819   1.424       .  A
C2819      C2820   1.418       .  A
C2819      C2826   1.506       .  S
C2820      C2821   1.411       .  A
C2820      H2825   1.083       .  S
C2821      C2822   1.413       .  A
C2822      C2823   1.511       .  S
C2823      H2827   1.110       .  S
C2823      H2828   1.097       .  S
C2823      H2829   1.103       .  S
C2826      H2830   1.110       .  S
C2826      H2831   1.109       .  S
C2826      H2832   1.111       .  S
C2833      C2834   1.407       .  A
C2833      C2838   1.419       .  A
C2833      H2840   1.084       .  S
C2834      C2835   1.425       .  A
C2835      C2836   1.410       .  A
C2835      C2842   1.500       .  S
C2836      C2837   1.406       .  A
C2836      H2841   1.084       .  S
C2837      C2838   1.427       .  A
C2838      C2839   1.507       .  S
C2839      H2843   1.111       .  S
C2839      H2844   1.110       .  S
C2839      H2845   1.110       .  S
C2842      H2846   1.110       .  S
C2842      H2847   1.097       .  S
C2842      H2848   1.111       .  S
C2849      C2850   1.397       .  A
C2849      C2854   1.406       .  A
C2849      H2856   1.084       .  S
C2850      C2851   1.425   1_455  A
C2851      C2852   1.410       .  A
C2851      C2858   1.507       .  S
C2852      C2853   1.404   1_655  A
C2852      H2857   1.084       .  S
C2853      C2854   1.426       .  A
C2854      C2855   1.507       .  S
C2855      H2859   1.111       .  S
C2855      H2860   1.105       .  S
C2855      H2861   1.109       .  S
C2858      H2862   1.108       .  S
C2858      H2863   1.109       .  S
C2858      H2864   1.110       .  S
C2865      C2866   1.410   1_655  A
C2865      C2870   1.411       .  A
C2865      H2872   1.084       .  S
C2866      C2867   1.427       .  A
C2867      C2868   1.412       .  A
C2867      C2874   1.509       .  S
C2868      C2869   1.404       .  A
C2868      H2873   1.082       .  S
C2869      C2870   1.422   1_455  A
C2870      C2871   1.504       .  S
C2871      H2875   1.110       .  S
C2871      H2876   1.110       .  S
C2871      H2877   1.103       .  S
C2874      H2878   1.110       .  S
C2874      H2879   1.103       .  S
C2874      H2880   1.111       .  S
C2881      C2882   1.401       .  A
C2881      C2886   1.406       .  A
C2881      H2888   1.084       .  S
C2882      C2883   1.418       .  A
C2883      C2884   1.385       .  A
C2883      C2890   1.507   1_455  S
C2884      C2885   1.395       .  A
C2884      H2889   1.086   1_455  S
C2885      C2886   1.418       .  A
C2886      C2887   1.507       .  S
C2887      H2891   1.111       .  S
C2887      H2892   1.109       .  S
C2887      H2893   1.110       .  S
C2890      H2894   1.105       .  S
C2890      H2895   1.110       .  S
C2890      H2896   1.103       .  S
C2897      C2898   1.403       .  A
C2897      C2902   1.390       .  A
C2897      H2904   1.085       .  S
C2898      C2899   1.409       .  A
C2899      C2900   1.408       .  A
C2899      C2906   1.505       .  S
C2900      C2901   1.406       .  A
C2900      H2905   1.081       .  S
C2901      C2902   1.412       .  A
C2902      C2903   1.509       .  S
C2903      H2907   1.111       .  S
C2903      H2908   1.106   1_655  S
C2903      H2909   1.110       .  S
C2906      H2910   1.110       .  S
C2906      H2911   1.109       .  S
C2906      H2912   1.110       .  S
C2913      C2914   1.411       .  A
C2913      C2918   1.413       .  A
C2913      H2920   1.084       .  S
C2914      C2915   1.429       .  A
C2915      C2916   1.413       .  A
C2915      C2922   1.508       .  S
C2916      C2917   1.403       .  A
C2916      H2921   1.084       .  S
C2917      C2918   1.421       .  A
C2918      C2919   1.503       .  S
C2919      H2923   1.110       .  S
C2919      H2924   1.102       .  S
C2919      H2925   1.111       .  S
C2922      H2926   1.103       .  S
C2922      H2927   1.110       .  S
C2922      H2928   1.111       .  S
C2929      C2930   1.404       .  A
C2929      C2934   1.401       .  A
C2929      H2936   1.083       .  S
C2930      C2931   1.420       .  A
C2931      C2932   1.421       .  A
C2931      C2938   1.505       .  S
C2932      C2933   1.415       .  A
C2932      H2937   1.083       .  S
C2933      C2934   1.422       .  A
C2934      C2935   1.498       .  S
C2935      H2939   1.111       .  S
C2935      H2940   1.094       .  S
C2935      H2941   1.104       .  S
C2938      H2942   1.110       .  S
C2938      H2943   1.109       .  S
C2938      H2944   1.111       .  S
C2945      C2946   1.409       .  A
C2945      C2950   1.414       .  A
C2945      H2952   1.084       .  S
C2946      C2947   1.430   1_556  A
C2947      C2948   1.409       .  A
C2947      C2954   1.511       .  S
C2948      C2949   1.399   1_554  A
C2948      H2953   1.084       .  S
C2949      C2950   1.422       .  A
C2950      C2951   1.504       .  S
C2951      H2955   1.110       .  S
C2951      H2956   1.110       .  S
C2951      H2957   1.104       .  S
C2954      H2958   1.110       .  S
C2954      H2959   1.104       .  S
C2954      H2960   1.111       .  S
C2961      C2962   1.411       .  A
C2961      C2966   1.413       .  A
C2961      H2968   1.083       .  S
C2962      C2963   1.424   1_556  A
C2963      C2964   1.411       .  A
C2963      C2970   1.508       .  S
C2964      C2965   1.403   1_554  A
C2964      H2969   1.076       .  S
C2965      C2966   1.418       .  A
C2966      C2967   1.503       .  S
C2967      H2971   1.111       .  S
C2967      H2972   1.108       .  S
C2967      H2973   1.108       .  S
C2970      H2974   1.108       .  S
C2970      H2975   1.110       .  S
C2970      H2976   1.111       .  S
C2977      C2978   1.396       .  A
C2977      C2982   1.398       .  A
C2977      H2984   1.081       .  S
C2978      C2979   1.405       .  A
C2979      C2980   1.388       .  A
C2979      C2986   1.475       .  S
C2980      C2981   1.387       .  A
C2980      H2985   1.085       .  S
C2981      C2982   1.416       .  A
C2982      C2983   1.509       .  S
C2983      H2987   1.111       .  S
C2983      H2988   1.104       .  S
C2983      H2989   1.111       .  S
C2986      H2990   1.104       .  S
C2986      H2991   1.107       .  S
C2986      H2992   1.109       .  S
C2993      C2994   1.400   1_554  A
C2993      C2998   1.395       .  A
C2993      H3000   1.084       .  S
C2994      C2995   1.430       .  A
C2995      C2996   1.396       .  A
C2995      C3002   1.506       .  S
C2996      C2997   1.392       .  A
C2996      H3001   1.085       .  S
C2997      C2998   1.417   1_556  A
C2998      C2999   1.506       .  S
C2999      H3003   1.108       .  S
C2999      H3004   1.110       .  S
C2999      H3005   1.106       .  S
C3002      H3006   1.111       .  S
C3002      H3007   1.105       .  S
C3002      H3008   1.104       .  S
C3009      C3010   1.398   1_554  A
C3009      C3014   1.396       .  A
C3009      H3016   1.084       .  S
C3010      C3011   1.419       .  A
C3011      C3012   1.395       .  A
C3011      C3018   1.509       .  S
C3012      C3013   1.397       .  A
C3012      H3017   1.084       .  S
C3013      C3014   1.417   1_556  A
C3014      C3015   1.506       .  S
C3015      H3019   1.111       .  S
C3015      H3020   1.110       .  S
C3015      H3021   1.108       .  S
C3018      H3022   1.110       .  S
C3018      H3023   1.109       .  S
C3018      H3024   1.107       .  S
C3025      C3026   1.415       .  A
C3025      C3030   1.411       .  A
C3025      H3032   1.083       .  S
C3026      C3027   1.422       .  A
C3027      C3028   1.420       .  A
C3027      C3034   1.505       .  S
C3028      C3029   1.411       .  A
C3028      H3033   1.083       .  S
C3029      C3030   1.414       .  A
C3030      C3031   1.508       .  S
C3031      H3035   1.109       .  S
C3031      H3036   1.098       .  S
C3031      H3037   1.110       .  S
C3034      H3038   1.110       .  S
C3034      H3039   1.109       .  S
C3034      H3040   1.111       .  S
C3041      C3042   1.407   1_455  A
C3041      C3046   1.408       .  A
C3041      H3048   1.084       .  S
C3042      C3043   1.428       .  A
C3043      C3044   1.420       .  A
C3043      C3050   1.507       .  S
C3044      C3045   1.408   1_655  A
C3044      H3049   1.082       .  S
C3045      C3046   1.424       .  A
C3046      C3047   1.499       .  S
C3047      H3051   1.110       .  S
C3047      H3052   1.094       .  S
C3047      H3053   1.111       .  S
C3050      H3054   1.110       .  S
C3050      H3055   1.108       .  S
C3050      H3056   1.111       .  S
C3057      C3058   1.402       .  A
C3057      C3062   1.412       .  A
C3057      H3064   1.084   1_455  S
C3058      C3059   1.420       .  A
C3059      C3060   1.410       .  A
C3059      C3066   1.503       .  S
C3060      C3061   1.409       .  A
C3060      H3065   1.084       .  S
C3061      C3062   1.425       .  A
C3062      C3063   1.509   1_455  S
C3063      H3067   1.111       .  S
C3063      H3068   1.108       .  S
C3063      H3069   1.109       .  S
C3066      H3070   1.110       .  S
C3066      H3071   1.105       .  S
C3066      H3072   1.110       .  S
C3073      C3074   1.407       .  A
C3073      C3078   1.418       .  A
C3073      H3080   1.084       .  S
C3074      C3075   1.424       .  A
C3075      C3076   1.414       .  A
C3075      C3082   1.509       .  S
C3076      C3077   1.407       .  A
C3076      H3081   1.076       .  S
C3077      C3078   1.424       .  A
C3078      C3079   1.498       .  S
C3079      H3083   1.111       .  S
C3079      H3084   1.108       .  S
C3079      H3085   1.107       .  S
C3082      H3086   1.109       .  S
C3082      H3087   1.110       .  S
C3082      H3088   1.111       .  S
C3089      C3090   1.416       .  A
C3089      C3094   1.400       .  A
C3089      H3096   1.082       .  S
C3090      C3091   1.412       .  A
C3091      C3092   1.390       .  A
C3091      C3098   1.511       .  S
C3092      C3093   1.406       .  A
C3092      H3097   1.084       .  S
C3093      C3094   1.402       .  A
C3094      C3095   1.507       .  S
C3095      H3099   1.111       .  S
C3095      H3100   1.111       .  S
C3095      H3101   1.106       .  S
C3098      H3102   1.110       .  S
C3098      H3103   1.103       .  S
C3098      H3104   1.111       .  S
C3105      C3106   1.402       .  A
C3105      C3110   1.393       .  A
C3105      H3112   1.085       .  S
C3106      C3107   1.407   1_655  A
C3107      C3108   1.385   1_455  A
C3107      C3114   1.506       .  S
C3108      C3109   1.396       .  A
C3108      H3113   1.082   1_655  S
C3109      C3110   1.405       .  A
C3110      C3111   1.504       .  S
C3111      H3115   1.111       .  S
C3111      H3116   1.110       .  S
C3111      H3117   1.108       .  S
C3114      H3118   1.110       .  S
C3114      H3119   1.107       .  S
C3114      H3120   1.103       .  S
C3121      C3122   1.393       .  A
C3121      C3126   1.382       .  A
C3121      H3128   1.086       .  S
C3122      C3123   1.413       .  A
C3123      C3124   1.408       .  A
C3123      C3130   1.506       .  S
C3124      C3125   1.405       .  A
C3124      H3129   1.084       .  S
C3125      C3126   1.417       .  A
C3126      C3127   1.505       .  S
C3127      H3131   1.107   1_455  S
C3127      H3132   1.110   1_455  S
C3127      H3133   1.104       .  S
C3130      H3134   1.111       .  S
C3130      H3135   1.110       .  S
C3130      H3136   1.111       .  S
C3137      C3138   1.409       .  A
C3137      C3142   1.417       .  A
C3137      H3144   1.084       .  S
C3138      C3139   1.433   1_556  A
C3139      C3140   1.412       .  A
C3139      C3146   1.511       .  S
C3140      C3141   1.400   1_554  A
C3140      H3145   1.083       .  S
C3141      C3142   1.424       .  A
C3142      C3143   1.503       .  S
C3143      H3147   1.110       .  S
C3143      H3148   1.111       .  S
C3143      H3149   1.103       .  S
C3146      H3150   1.110       .  S
C3146      H3151   1.104       .  S
C3146      H3152   1.111       .  S
C3153      C3154   1.411       .  A
C3153      C3158   1.415       .  A
C3153      H3160   1.084       .  S
C3154      C3155   1.425   1_556  A
C3155      C3156   1.407       .  A
C3155      C3162   1.507       .  S
C3156      C3157   1.401   1_554  A
C3156      H3161   1.074       .  S
C3157      C3158   1.421       .  A
C3158      C3159   1.505       .  S
C3159      H3163   1.110       .  S
C3159      H3164   1.104       .  S
C3159      H3165   1.110       .  S
C3162      H3166   1.106       .  S
C3162      H3167   1.109       .  S
C3162      H3168   1.111       .  S
C3169      C3170   1.413       .  A
C3169      C3174   1.411       .  A
C3169      H3176   1.083       .  S
C3170      C3171   1.424       .  A
C3171      C3172   1.424       .  A
C3171      C3178   1.503       .  S
C3172      C3173   1.412       .  A
C3172      H3177   1.084       .  S
C3173      C3174   1.417       .  A
C3174      C3175   1.506       .  S
C3175      H3179   1.111       .  S
C3175      H3180   1.110       .  S
C3175      H3181   1.108       .  S
C3178      H3182   1.110       .  S
C3178      H3183   1.108       .  S
C3178      H3184   1.111       .  S
C3185      C3186   1.405       .  A
C3185      C3190   1.410       .  A
C3185      H3192   1.085       .  S
C3186      C3187   1.424       .  A
C3187      C3188   1.418       .  A
C3187      C3194   1.506       .  S
C3188      C3189   1.409       .  A
C3188      H3193   1.084       .  S
C3189      C3190   1.425       .  A
C3190      C3191   1.497       .  S
C3191      H3195   1.110       .  S
C3191      H3196   1.111       .  S
C3191      H3197   1.092       .  S
C3194      H3198   1.110       .  S
C3194      H3199   1.108       .  S
C3194      H3200   1.111       .  S
C3201      C3202   1.392       .  A
C3201      C3206   1.399       .  A
C3201      H3208   1.085       .  S
C3202      C3203   1.401       .  A
C3203      C3204   1.387       .  A
C3203      C3210   1.485       .  S
C3204      C3205   1.399       .  A
C3204      H3209   1.084       .  S
C3205      C3206   1.427       .  A
C3206      C3207   1.505       .  S
C3207      H3211   1.111       .  S
C3207      H3212   1.104       .  S
C3207      H3213   1.110       .  S
C3210      H3214   1.107       .  S
C3210      H3215   1.107       .  S
C3210      H3216   1.106       .  S
C3217      C3218   1.406       .  A
C3217      C3222   1.399       .  A
C3217      H3224   1.085       .  S
C3218      C3219   1.411       .  A
C3219      C3220   1.378       .  A
C3219      C3226   1.502       .  S
C3220      C3221   1.389       .  A
C3220      H3225   1.078       .  S
C3221      C3222   1.393       .  A
C3222      C3223   1.490       .  S
C3223      H3227   1.108       .  S
C3223      H3228   1.109       .  S
C3223      H3229   1.104       .  S
C3226      H3230   1.107       .  S
C3226      H3231   1.106       .  S
C3226      H3232   1.111       .  S
C3233      C3234   1.408       .  A
C3233      C3238   1.405       .  A
C3233      H3240   1.085       .  S
C3234      C3235   1.407       .  A
C3235      C3236   1.379       .  A
C3235      C3242   1.501   1_556  S
C3236      C3237   1.400       .  A
C3236      H3241   1.086       .  S
C3237      C3238   1.408       .  A
C3238      C3239   1.498       .  S
C3239      H3243   1.107       .  S
C3239      H3244   1.104       .  S
C3239      H3245   1.106       .  S
C3242      H3246   1.098       .  S
C3242      H3247   1.109       .  S
C3242      H3248   1.111       .  S
C3249      C3250   1.402   1_554  A
C3249      C3254   1.392       .  A
C3249      H3256   1.079       .  S
C3250      C3251   1.408       .  A
C3251      C3252   1.403       .  A
C3251      C3258   1.505       .  S
C3252      C3253   1.407       .  A
C3252      H3257   1.085       .  S
C3253      C3254   1.405   1_556  A
C3254      C3255   1.505       .  S
C3255      H3259   1.111       .  S
C3255      H3260   1.110       .  S
C3255      H3261   1.107       .  S
C3258      H3262   1.110       .  S
C3258      H3263   1.110       .  S
C3258      H3264   1.111       .  S
C3265      C3266   1.407       .  A
C3265      C3270   1.405       .  A
C3265      H3272   1.084       .  S
C3266      C3267   1.423       .  A
C3267      C3268   1.416       .  A
C3267      C3274   1.509       .  S
C3268      C3269   1.406       .  A
C3268      H3273   1.084       .  S
C3269      C3270   1.421       .  A
C3270      C3271   1.500       .  S
C3271      H3275   1.110       .  S
C3271      H3276   1.095       .  S
C3271      H3277   1.110       .  S
C3274      H3278   1.107       .  S
C3274      H3279   1.110       .  S
C3274      H3280   1.111       .  S
C3281      C3282   1.410       .  A
C3281      C3286   1.412       .  A
C3281      H3288   1.084       .  S
C3282      C3283   1.415       .  A
C3283      C3284   1.406       .  A
C3283      C3290   1.508       .  S
C3284      C3285   1.405       .  A
C3284      H3289   1.073       .  S
C3285      C3286   1.416       .  A
C3286      C3287   1.504       .  S
C3287      H3291   1.111       .  S
C3287      H3292   1.108       .  S
C3287      H3293   1.110       .  S
C3290      H3294   1.108       .  S
C3290      H3295   1.111       .  S
C3290      H3296   1.111       .  S
C3297      C3298   1.416       .  A
C3297      C3302   1.413       .  A
C3297      H3304   1.083       .  S
C3298      C3299   1.421       .  A
C3299      C3300   1.419       .  A
C3299      C3306   1.505       .  S
C3300      C3301   1.412       .  A
C3300      H3305   1.084       .  S
C3301      C3302   1.415       .  A
C3302      C3303   1.509       .  S
C3303      H3307   1.110       .  S
C3303      H3308   1.102       .  S
C3303      H3309   1.103       .  S
C3306      H3310   1.109       .  S
C3306      H3311   1.110       .  S
C3306      H3312   1.111       .  S
C3313      C3314   1.405       .  A
C3313      C3318   1.408       .  A
C3313      H3320   1.084       .  S
C3314      C3315   1.417       .  A
C3315      C3316   1.414       .  A
C3315      C3322   1.507       .  S
C3316      C3317   1.409       .  A
C3316      H3321   1.078       .  S
C3317      C3318   1.418       .  A
C3318      C3319   1.500       .  S
C3319      H3323   1.111       .  S
C3319      H3324   1.106       .  S
C3319      H3325   1.109       .  S
C3322      H3326   1.110       .  S
C3322      H3327   1.109       .  S
C3322      H3328   1.111       .  S
C3329      C3330   1.410       .  A
C3329      C3334   1.408       .  A
C3329      H3336   1.084       .  S
C3330      C3331   1.423       .  A
C3331      C3332   1.424       .  A
C3331      C3338   1.508       .  S
C3332      C3333   1.411       .  A
C3332      H3337   1.084       .  S
C3333      C3334   1.421       .  A
C3334      C3335   1.500       .  S
C3335      H3339   1.110       .  S
C3335      H3340   1.111       .  S
C3335      H3341   1.094       .  S
C3338      H3342   1.110       .  S
C3338      H3343   1.107       .  S
C3338      H3344   1.111       .  S
C3345      C3346   1.408       .  A
C3345      C3350   1.413       .  A
C3345      H3352   1.082       .  S
C3346      C3347   1.411       .  A
C3347      C3348   1.410       .  A
C3347      C3354   1.508       .  S
C3348      C3349   1.414       .  A
C3348      H3353   1.082       .  S
C3349      C3350   1.421       .  A
C3350      C3351   1.506       .  S
C3351      H3355   1.111       .  S
C3351      H3356   1.109       .  S
C3351      H3357   1.110       .  S
C3354      H3358   1.105       .  S
C3354      H3359   1.099       .  S
C3354      H3360   1.110       .  S
C3361      C3362   1.402       .  A
C3361      C3366   1.410       .  A
C3361      H3368   1.085       .  S
C3362      C3363   1.416       .  A
C3363      C3364   1.419       .  A
C3363      C3370   1.505       .  S
C3364      C3365   1.413       .  A
C3364      H3369   1.082       .  S
C3365      C3366   1.424       .  A
C3366      C3367   1.503       .  S
C3367      H3371   1.111       .  S
C3367      H3372   1.103       .  S
C3367      H3373   1.108       .  S
C3370      H3374   1.110       .  S
C3370      H3375   1.109       .  S
C3370      H3376   1.111       .  S
C3377      C3378   1.413       .  A
C3377      C3382   1.409       .  A
C3377      H3384   1.082       .  S
C3378      C3379   1.424       .  A
C3379      C3380   1.416       .  A
C3379      C3386   1.506       .  S
C3380      C3381   1.409       .  A
C3380      H3385   1.082       .  S
C3381      C3382   1.415       .  A
C3382      C3383   1.505       .  S
C3383      H3387   1.110       .  S
C3383      H3388   1.108       .  S
C3383      H3389   1.108       .  S
C3386      H3390   1.110       .  S
C3386      H3391   1.110       .  S
C3386      H3392   1.111       .  S
C3393      C3394   1.397       .  A
C3393      C3398   1.394       .  A
C3393      H3400   1.085       .  S
C3394      C3395   1.409       .  A
C3395      C3396   1.395       .  A
C3395      C3402   1.508       .  S
C3396      C3397   1.402       .  A
C3396      H3401   1.085       .  S
C3397      C3398   1.408       .  A
C3398      C3399   1.498       .  S
C3399      H3403   1.111       .  S
C3399      H3404   1.108       .  S
C3399      H3405   1.110       .  S
C3402      H3406   1.111       .  S
C3402      H3407   1.108       .  S
C3402      H3408   1.111       .  S
C3409      C3410   1.399       .  A
C3409      C3414   1.409       .  A
C3409      H3416   1.082       .  S
C3410      C3411   1.424       .  A
C3411      C3412   1.418       .  A
C3411      C3418   1.502       .  S
C3412      C3413   1.408       .  A
C3412      H3417   1.084       .  S
C3413      C3414   1.432       .  A
C3414      C3415   1.513       .  S
C3415      H3419   1.110       .  S
C3415      H3420   1.111       .  S
C3415      H3421   1.102       .  S
C3418      H3422   1.111       .  S
C3418      H3423   1.103       .  S
C3418      H3424   1.110       .  S
C3425      C3426   1.410       .  A
C3425      C3430   1.415       .  A
C3425      H3432   1.083       .  S
C3426      C3427   1.426       .  A
C3427      C3428   1.411       .  A
C3427      C3434   1.509       .  S
C3428      C3429   1.404       .  A
C3428      H3433   1.083       .  S
C3429      C3430   1.420       .  A
C3430      C3431   1.507       .  S
C3431      H3435   1.111       .  S
C3431      H3436   1.096       .  S
C3431      H3437   1.104       .  S
C3434      H3438   1.109       .  S
C3434      H3439   1.110       .  S
C3434      H3440   1.111       .  S
C3441      C3442   1.411       .  A
C3441      C3446   1.416       .  A
C3441      H3448   1.084       .  S
C3442      C3443   1.423       .  A
C3443      C3444   1.407       .  A
C3443      C3450   1.510       .  S
C3444      C3445   1.405       .  A
C3444      H3449   1.083       .  S
C3445      C3446   1.417       .  A
C3446      C3447   1.508       .  S
C3447      H3451   1.110       .  S
C3447      H3452   1.105       .  S
C3447      H3453   1.107       .  S
C3450      H3454   1.110       .  S
C3450      H3455   1.109       .  S
C3450      H3456   1.111       .  S
C3457      C3458   1.405       .  A
C3457      C3462   1.402       .  A
C3457      H3464   1.084       .  S
C3458      C3459   1.424       .  A
C3459      C3460   1.416       .  A
C3459      C3466   1.508       .  S
C3460      C3461   1.406       .  A
C3460      H3465   1.084       .  S
C3461      C3462   1.421       .  A
C3462      C3463   1.500       .  S
C3463      H3467   1.111       .  S
C3463      H3468   1.102       .  S
C3463      H3469   1.110       .  S
C3466      H3470   1.107       .  S
C3466      H3471   1.110       .  S
C3466      H3472   1.111       .  S
C3473      C3474   1.402       .  A
C3473      C3478   1.405       .  A
C3473      H3480   1.084       .  S
C3474      C3475   1.414       .  A
C3475      C3476   1.385       .  A
C3475      C3482   1.509       .  S
C3476      C3477   1.397       .  A
C3476      H3481   1.085       .  S
C3477      C3478   1.414       .  A
C3478      C3479   1.503       .  S
C3479      H3483   1.111       .  S
C3479      H3484   1.102       .  S
C3479      H3485   1.110       .  S
C3482      H3486   1.110       .  S
C3482      H3487   1.107       .  S
C3482      H3488   1.096       .  S
C3489      C3490   1.410       .  A
C3489      C3494   1.418       .  A
C3489      H3496   1.083       .  S
C3490      C3491   1.430       .  A
C3491      C3492   1.410       .  A
C3491      C3498   1.510       .  S
C3492      C3493   1.402       .  A
C3492      H3497   1.082       .  S
C3493      C3494   1.423       .  A
C3494      C3495   1.506       .  S
C3495      H3499   1.110       .  S
C3495      H3500   1.104       .  S
C3495      H3501   1.102       .  S
C3498      H3502   1.109       .  S
C3498      H3503   1.110       .  S
C3498      H3504   1.111       .  S
C3505      C3506   1.413       .  A
C3505      C3510   1.411       .  A
C3505      H3512   1.082       .  S
C3506      C3507   1.423       .  A
C3507      C3508   1.424       .  A
C3507      C3514   1.504       .  S
C3508      C3509   1.412       .  A
C3508      H3513   1.083       .  S
C3509      C3510   1.415       .  A
C3510      C3511   1.504       .  S
C3511      H3515   1.103       .  S
C3511      H3516   1.108       .  S
C3511      H3517   1.092       .  S
C3514      H3518   1.109       .  S
C3514      H3519   1.110       .  S
C3514      H3520   1.111       .  S
C3521      C3522   1.405       .  A
C3521      C3526   1.426       .  A
C3521      H3528   1.083       .  S
C3522      C3523   1.413       .  A
C3523      C3524   1.406       .  A
C3523      C3530   1.514       .  S
C3524      C3525   1.405       .  A
C3524      H3529   1.074       .  S
C3525      C3526   1.436       .  A
C3526      C3527   1.499       .  S
C3527      H3531   1.111       .  S
C3527      H3532   1.105       .  S
C3527      H3533   1.107       .  S
C3530      H3534   1.100       .  S
C3530      H3535   1.111       .  S
C3530      H3536   1.102       .  S
C3537      C3538   1.410       .  A
C3537      C3542   1.413       .  A
C3537      H3544   1.084       .  S
C3538      C3539   1.417       .  A
C3539      C3540   1.409       .  A
C3539      C3546   1.508       .  S
C3540      C3541   1.407       .  A
C3540      H3545   1.080       .  S
C3541      C3542   1.414       .  A
C3542      C3543   1.505       .  S
C3543      H3547   1.110       .  S
C3543      H3548   1.108       .  S
C3543      H3549   1.105       .  S
C3546      H3550   1.110       .  S
C3546      H3551   1.109       .  S
C3546      H3552   1.111       .  S
C3553      C3554   1.399       .  A
C3553      C3558   1.392       .  A
C3553      H3560   1.085       .  S
C3554      C3555   1.406       .  A
C3555      C3556   1.389       .  A
C3555      C3562   1.498       .  S
C3556      C3557   1.395       .  A
C3556      H3561   1.078       .  S
C3557      C3558   1.412       .  A
C3558      C3559   1.509       .  S
C3559      H3563   1.109       .  S
C3559      H3564   1.111       .  S
C3559      H3565   1.110       .  S
C3562      H3566   1.110       .  S
C3562      H3567   1.102       .  S
C3562      H3568   1.111       .  S
C3569      C3570   1.397       .  A
C3569      C3574   1.382       .  A
C3569      H3576   1.086       .  S
C3570      C3571   1.410       .  A
C3571      C3572   1.399       .  A
C3571      C3578   1.508       .  S
C3572      C3573   1.404       .  A
C3572      H3577   1.084       .  S
C3573      C3574   1.411       .  A
C3574      C3575   1.506       .  S
C3575      H3579   1.110       .  S
C3575      H3580   1.109       .  S
C3575      H3581   1.104       .  S
C3578      H3582   1.104       .  S
C3578      H3583   1.098       .  S
C3578      H3584   1.111       .  S
C3585      C3586   1.397       .  A
C3585      C3590   1.389       .  A
C3585      H3592   1.083       .  S
C3586      C3587   1.411       .  A
C3587      C3588   1.385       .  A
C3587      C3594   1.509       .  S
C3588      C3589   1.395       .  A
C3588      H3593   1.084       .  S
C3589      C3590   1.405       .  A
C3590      C3591   1.503       .  S
C3591      H3595   1.110       .  S
C3591      H3596   1.107       .  S
C3591      H3597   1.096       .  S
C3594      H3598   1.111       .  S
C3594      H3599   1.105       .  S
C3594      H3600   1.110       .  S
C3601      C3602   1.396       .  A
C3601      C3606   1.405       .  A
C3601      H3608   1.082       .  S
C3602      C3603   1.409       .  A
C3603      C3604   1.422       .  A
C3603      C3610   1.502       .  S
C3604      C3605   1.421       .  A
C3604      H3609   1.081       .  S
C3605      C3606   1.430       .  A
C3606      C3607   1.506       .  S
C3607      H3611   1.111       .  S
C3607      H3612   1.102       .  S
C3607      H3613   1.105       .  S
C3610      H3614   1.110       .  S
C3610      H3615   1.110       .  S
C3610      H3616   1.111       .  S
C3617      C3618   1.413       .  A
C3617      C3622   1.412       .  A
C3617      H3624   1.080       .  S
C3618      C3619   1.425       .  A
C3619      C3620   1.410       .  A
C3619      C3626   1.508       .  S
C3620      C3621   1.404       .  A
C3620      H3625   1.082       .  S
C3621      C3622   1.407       .  A
C3622      C3623   1.503       .  S
C3623      H3627   1.108       .  S
C3623      H3628   1.108       .  S
C3623      H3629   1.099       .  S
C3626      H3630   1.108       .  S
C3626      H3631   1.110       .  S
C3626      H3632   1.111       .  S
C3633      C3634   1.407       .  A
C3633      C3638   1.414       .  A
C3633      H3640   1.076       .  S
C3634      C3635   1.416       .  A
C3635      C3636   1.415       .  A
C3635      C3642   1.505       .  S
C3636      C3637   1.414       .  A
C3636      H3641   1.083       .  S
C3637      C3638   1.421       .  A
C3638      C3639   1.507       .  S
C3639      H3643   1.111       .  S
C3639      H3644   1.109       .  S
C3639      H3645   1.109       .  S
C3642      H3646   1.106       .  S
C3642      H3647   1.106       .  S
C3642      H3648   1.111       .  S
C3649      C3650   1.414       .  A
C3649      C3654   1.408       .  A
C3649      H3656   1.082       .  S
C3650      C3651   1.419       .  A
C3651      C3652   1.420       .  A
C3651      C3658   1.504       .  S
C3652      C3653   1.411       .  A
C3652      H3657   1.083       .  S
C3653      C3654   1.412       .  A
C3654      C3655   1.507       .  S
C3655      H3659   1.111       .  S
C3655      H3660   1.108       .  S
C3655      H3661   1.108       .  S
C3658      H3662   1.110       .  S
C3658      H3663   1.109       .  S
C3658      H3664   1.111       .  S
C3665      C3666   1.389       .  A
C3665      C3670   1.381       .  A
C3665      H3672   1.085       .  S
C3666      C3667   1.399       .  A
C3667      C3668   1.409       .  A
C3667      C3674   1.496       .  S
C3668      C3669   1.408       .  A
C3668      H3673   1.083       .  S
C3669      C3670   1.422       .  A
C3670      C3671   1.506       .  S
C3671      H3675   1.111       .  S
C3671      H3676   1.104       .  S
C3671      H3677   1.107       .  S
C3674      H3678   1.111       .  S
C3674      H3679   1.110       .  S
C3674      H3680   1.103       .  S
C3681      C3682   1.400       .  A
C3681      C3686   1.400       .  A
C3681      H3688   1.085       .  S
C3682      C3683   1.412       .  A
C3683      C3684   1.391       .  A
C3683      C3690   1.510       .  S
C3684      C3685   1.400       .  A
C3684      H3689   1.085       .  S
C3685      C3686   1.415       .  A
C3686      C3687   1.503       .  S
C3687      H3691   1.111       .  S
C3687      H3692   1.110       .  S
C3687      H3693   1.103       .  S
C3690      H3694   1.108       .  S
C3690      H3695   1.104       .  S
C3690      H3696   1.110       .  S
C3697      C3698   1.401       .  A
C3697      C3702   1.395       .  A
C3697      H3704   1.085       .  S
C3698      C3699   1.413       .  A
C3699      C3700   1.402       .  A
C3699      C3706   1.501       .  S
C3700      C3701   1.400       .  A
C3700      H3705   1.085       .  S
C3701      C3702   1.413       .  A
C3702      C3703   1.509       .  S
C3703      H3707   1.110       .  S
C3703      H3708   1.109       .  S
C3703      H3709   1.110       .  S
C3706      H3710   1.108       .  S
C3706      H3711   1.109       .  S
C3706      H3712   1.111       .  S
C3713      C3714   1.414       .  A
C3713      C3718   1.411       .  A
C3713      H3720   1.084       .  S
C3714      C3715   1.423       .  A
C3715      C3716   1.411       .  A
C3715      C3722   1.507       .  S
C3716      C3717   1.405       .  A
C3716      H3721   1.078       .  S
C3717      C3718   1.416       .  A
C3718      C3719   1.505       .  S
C3719      H3723   1.110       .  S
C3719      H3724   1.103       .  S
C3719      H3725   1.110       .  S
C3722      H3726   1.110       .  S
C3722      H3727   1.110       .  S
C3722      H3728   1.111       .  S
C3729      C3730   1.412       .  A
C3729      C3734   1.411       .  A
C3729      H3736   1.083       .  S
C3730      C3731   1.422       .  A
C3731      C3732   1.419       .  A
C3731      C3738   1.506       .  S
C3732      C3733   1.410       .  A
C3732      H3737   1.081       .  S
C3733      C3734   1.417       .  A
C3734      C3735   1.504       .  S
C3735      H3739   1.111       .  S
C3735      H3740   1.103       .  S
C3735      H3741   1.106       .  S
C3738      H3742   1.110       .  S
C3738      H3743   1.109       .  S
C3738      H3744   1.111       .  S
C3745      C3746   1.406       .  A
C3745      C3750   1.405       .  A
C3745      H3752   1.084       .  S
C3746      C3747   1.427       .  A
C3747      C3748   1.422       .  A
C3747      C3754   1.506       .  S
C3748      C3749   1.408       .  A
C3748      H3753   1.084       .  S
C3749      C3750   1.422       .  A
C3750      C3751   1.499       .  S
C3751      H3755   1.111       .  S
C3751      H3756   1.093       .  S
C3751      H3757   1.110       .  S
C3754      H3758   1.109       .  S
C3754      H3759   1.110       .  S
C3754      H3760   1.111       .  S
C3761      C3762   1.410       .  A
C3761      C3766   1.425       .  A
C3761      H3768   1.083       .  S
C3762      C3763   1.419       .  A
C3763      C3764   1.405       .  A
C3763      C3770   1.499       .  S
C3764      C3765   1.403       .  A
C3764      H3769   1.084       .  S
C3765      C3766   1.425       .  A
C3766      C3767   1.507       .  S
C3767      H3771   1.110       .  S
C3767      H3772   1.106       .  S
C3767      H3773   1.105       .  S
C3770      H3774   1.103       .  S
C3770      H3775   1.109       .  S
C3770      H3776   1.111       .  S
C3777      C3778   1.392       .  A
C3777      C3782   1.400       .  A
C3777      H3784   1.084       .  S
C3778      C3779   1.419       .  A
C3779      C3780   1.393       .  A
C3779      C3786   1.507       .  S
C3780      C3781   1.398       .  A
C3780      H3785   1.084       .  S
C3781      C3782   1.428       .  A
C3782      C3783   1.509       .  S
C3783      H3787   1.111       .  S
C3783      H3788   1.109       .  S
C3783      H3789   1.109       .  S
C3786      H3790   1.107       .  S
C3786      H3791   1.110       .  S
C3786      H3792   1.108       .  S
C3793      C3794   1.411       .  A
C3793      C3798   1.402       .  A
C3793      H3800   1.081       .  S
C3794      C3795   1.410       .  A
C3795      C3796   1.386       .  A
C3795      C3802   1.516       .  S
C3796      C3797   1.415       .  A
C3796      H3801   1.084       .  S
C3797      C3798   1.409       .  A
C3798      C3799   1.505       .  S
C3799      H3803   1.111       .  S
C3799      H3804   1.106       .  S
C3799      H3805   1.110       .  S
C3802      H3806   1.097       .  S
C3802      H3807   1.111       .  S
C3802      H3808   1.111       .  S
C3809      C3810   1.408       .  A
C3809      C3814   1.394       .  A
C3809      H3816   1.084       .  S
C3810      C3811   1.413       .  A
C3811      C3812   1.396       .  A
C3811      C3818   1.509       .  S
C3812      C3813   1.406       .  A
C3812      H3817   1.085       .  S
C3813      C3814   1.409       .  A
C3814      C3815   1.509       .  S
C3815      H3819   1.111       .  S
C3815      H3820   1.110       .  S
C3815      H3821   1.108       .  S
C3818      H3822   1.110       .  S
C3818      H3823   1.110       .  S
C3818      H3824   1.111       .  S
C3825      C3826   1.402       .  A
C3825      C3830   1.388       .  A
C3825      H3832   1.084       .  S
C3826      C3827   1.426       .  A
C3827      C3828   1.391       .  A
C3827      C3834   1.511       .  S
C3828      C3829   1.390       .  A
C3828      H3833   1.086       .  S
C3829      C3830   1.405       .  A
C3830      C3831   1.501       .  S
C3831      H3835   1.104       .  S
C3831      H3836   1.110       .  S
C3831      H3837   1.108       .  S
C3834      H3838   1.110       .  S
C3834      H3839   1.103       .  S
C3834      H3840   1.110       .  S
