geometry optimzed in LAMMPS
_audit_creation_date              2020-11-30 
_audit_creation_method            'lammps2cif' 
_symmetry_space_group_name_H-M    'P1' 
_symmetry_Int_Tables_number       1 
_symmetry_cell_setting            triclinic 
loop_ 
_symmetry_equiv_pos_as_xyz 
  x,y,z 
_cell_length_a                    39.139699591392656 
_cell_length_b                    39.01555321876509 
_cell_length_c                    39.08361281813102 
_cell_angle_alpha                 89.97177322506624 
_cell_angle_beta                  89.98810679133987 
_cell_angle_gamma                 90.10812250450041 
loop_ 
_atom_site_label 
_atom_site_type_symbol 
_atom_site_fract_x 
_atom_site_fract_y 
_atom_site_fract_z 
_atom_site_charge 
C1          C  0.00200866  0.27070268  0.74529062    -0.00170
C2          C  0.00279399  0.24195953  0.76496960    -0.00170
C3          C  0.26583404  0.99997080  0.74167231    -0.00170
C4          C  0.24101153  0.00057022  0.76598041    -0.00170
C5          C  0.99796622  0.73108266  0.25578972    -0.00170
C6          C  0.00021373  0.75457925  0.23015831    -0.00170
C7          C  0.73482217  0.00183796  0.25989439    -0.00170
C8          C  0.75844039  0.00291287  0.23452362    -0.00170
C9          C  0.73867864  0.26504063  0.00161924    -0.00170
C10         C  0.76267206  0.23992766  0.00116190    -0.00170
C11         C  0.26061804  0.73617248  0.00038489    -0.00170
C12         C  0.23558065  0.76021569  0.00069358    -0.00170
C13         C  0.73820813  0.73938270  0.00179277    -0.00170
C14         C  0.76275140  0.76398069  0.00150850    -0.00170
C15         C  0.73039494  0.99949530  0.74762481    -0.00170
C16         C  0.75566886  0.99834176  0.77152162    -0.00170
C17         C  0.00067913  0.75740155  0.76913903    -0.00170
C18         C  0.99893602  0.73439800  0.74311649    -0.00170
O19         O  0.11771185  0.83722204  0.91564954    -0.82530
C20         C  0.09869423  0.98118333  0.90196668     0.96830
O21         O  0.12486068  0.96546145  0.91258208    -0.71650
O22         O  0.11559319  0.92308520  0.96493490    -0.75240
Al23       Al  0.13554639  0.91815746  0.92079000     1.48980
C24         C  0.09958848  0.90022561  0.98135073     0.92080
O25         O  0.03418986  0.88471276  0.92486324    -0.81460
O26         O  0.08180201  0.88280802  0.83805715    -0.75020
Al27       Al  0.07752033  0.86388601  0.91919688     1.90120
O28         O  0.03293995  0.91381272  0.87695324    -0.74080
O29         O  0.12129399  0.93597577  0.84566928    -0.73940
O30         O  0.07426696  0.96509585  0.88849015    -0.79600
O31         O  0.16054912  0.91461735  0.87903826    -0.77800
O32         O  0.09722969  0.90155781  0.90209433    -1.13930
O33         O  0.15495007  0.87501446  0.93312245    -0.73130
C34         C  0.14679818  0.84431224  0.92729696     0.97590
C35         C  0.01790440  0.90076812  0.90222911     0.93990
Al36       Al  0.07912984  0.92253287  0.86563232     1.55560
O37         O  0.08619791  0.87501413  0.96611605    -0.77750
C38         C  0.15188065  0.92752131  0.85074060     0.98150
C39         C  0.07080905  0.85335934  0.84533319     0.93030
O40         O  0.06499164  0.84494839  0.87598222    -0.83070
O41         O  0.88324508  0.91802700  0.83748187    -0.82530
C42         C  0.90018111  0.90333559  0.98173791     0.96830
O43         O  0.87525032  0.91675665  0.96618035    -0.71650
O44         O  0.88601602  0.96769301  0.92319243    -0.75240
Al45       Al  0.86443160  0.92437374  0.91878934     1.48980
C46         C  0.90179519  0.98370444  0.90006555     0.92080
O47         O  0.96514395  0.92512831  0.88761304    -0.81460
O48         O  0.91433707  0.83949921  0.88168221    -0.75020
Al49       Al  0.92277783  0.92062988  0.86503474     1.90120
O50         O  0.96480714  0.87575250  0.91453773    -0.74080
O51         O  0.87452081  0.84711067  0.93455702    -0.73940
O52         O  0.92273871  0.88689975  0.96565877    -0.79600
O53         O  0.83705049  0.88421315  0.91635705    -0.77800
O54         O  0.90166894  0.90374350  0.90218279    -1.13930
O55         O  0.84582644  0.93596559  0.87518969    -0.73130
C56         C  0.85408313  0.92940737  0.84465331     0.97590
C57         C  0.98067700  0.90125034  0.90265023     0.93990
Al58       Al  0.91770418  0.86580718  0.92231224     1.55560
O59         O  0.91489911  0.96794449  0.87518437    -0.77750
C60         C  0.84402451  0.85505002  0.92811223     0.98150
C61         C  0.92716294  0.84681725  0.85302387     0.93030
O62         O  0.93526523  0.87730632  0.84605052    -0.83070
O63         O  0.16318553  0.88301725  0.08288048    -0.82530
C64         C  0.02018164  0.90249484  0.10111891     0.96830
O65         O  0.03519817  0.87731938  0.08751022    -0.71650
O66         O  0.07746164  0.88435335  0.03556297    -0.75240
Al67       Al  0.08184536  0.86480410  0.08002138     1.48980
C68         C  0.09982353  0.90062590  0.01896899     0.92080
O69         O  0.11454039  0.96626854  0.07600492    -0.81460
O70         O  0.12268712  0.91749399  0.16261366    -0.75020
Al71       Al  0.13619638  0.92312571  0.08053258     1.90120
O72         O  0.08852573  0.96704728  0.12570480    -0.74080
O73         O  0.06885269  0.87781198  0.15774532    -0.73940
O74         O  0.03662250  0.92475866  0.11779139    -0.79600
O75         O  0.08376901  0.83857980  0.12123919    -0.77800
O76         O  0.09943057  0.90276082  0.09910822    -1.13930
O77         O  0.12477834  0.84476599  0.06868088    -0.73130
C78         C  0.15560266  0.85324704  0.07310536     0.97590
C79         C  0.10000379  0.98243062  0.09976393     0.93990
Al80       Al  0.08086717  0.92021666  0.13736134     1.55560
O81         O  0.12448469  0.91470444  0.03408292    -0.77750
C82         C  0.07369958  0.84680504  0.15073470     0.98150
C83         C  0.15129813  0.92925572  0.15349782     0.93030
O84         O  0.15670505  0.93603879  0.12245394    -0.83070
O85         O  0.83891588  0.91658071  0.12098849    -0.82530
C86         C  0.98263714  0.90342605  0.10068188     0.96830
O87         O  0.96702386  0.91508675  0.12641818    -0.71650
O88         O  0.92424245  0.96654073  0.11687813    -0.75240
Al89       Al  0.91989394  0.92280534  0.13741730     1.48980
C90         C  0.90091805  0.98252524  0.10139267     0.92080
O91         O  0.88460453  0.92569114  0.03593453    -0.81460
O92         O  0.88386326  0.83915054  0.08371542    -0.75020
Al93       Al  0.86480910  0.92013510  0.08007253     1.90120
O94         O  0.91487362  0.87854819  0.03451431    -0.74080
O95         O  0.93645516  0.84724317  0.12339904    -0.73940
O96         O  0.96648835  0.88934391  0.07656902    -0.79600
O97         O  0.91710123  0.88146208  0.16318350    -0.77800
O98         O  0.90286546  0.90348650  0.09932246    -1.13930
O99         O  0.87710233  0.93488091  0.15733977    -0.73130
C100        C  0.84650276  0.92813202  0.15008911     0.97590
C101        C  0.90072459  0.90325252  0.01935300     0.93990
Al102      Al  0.92358453  0.86697289  0.08112363     1.55560
O103        O  0.87576204  0.96699125  0.08842114    -0.77750
C104        C  0.92922922  0.85295072  0.15431872     0.98150
C105        C  0.85430226  0.84621579  0.07325865     0.93030
O106        O  0.84584805  0.87691571  0.06790519    -0.83070
O107        O  0.83810617  0.08534595  0.88290722    -0.82530
C108        C  0.98194163  0.10066673  0.90254860     0.96830
O109        O  0.96609606  0.09052167  0.87622975    -0.71650
O110        O  0.92311099  0.03796165  0.88268813    -0.75240
Al111      Al  0.91894215  0.08324782  0.86474735     1.48980
C112        C  0.90131754  0.02134892  0.89990657     0.92080
O113        O  0.88418842  0.07718697  0.96755763    -0.81460
O114        O  0.88341040  0.16397019  0.92150499    -0.75020
Al115      Al  0.86459043  0.08266083  0.92334068     1.90120
O116        O  0.91445440  0.12419173  0.96941516    -0.74080
O117        O  0.93685520  0.15728047  0.88268527    -0.73940
O118        O  0.96593323  0.11328372  0.92757728    -0.79600
O119        O  0.91655155  0.12640553  0.84107059    -0.77800
O120        O  0.90225198  0.10043634  0.90404762    -1.13930
O121        O  0.87605089  0.07206324  0.84437820    -0.73130
C122        C  0.84534815  0.07591486  0.85302030     0.97590
C123        C  0.90031619  0.09948428  0.98428303     0.93990
Al124      Al  0.92319899  0.13626776  0.92356113     1.55560
O125        O  0.87692126  0.03630257  0.91479169    -0.77750
C126        C  0.92987276  0.15397021  0.85159356     0.98150
C127        C  0.85350761  0.15653708  0.93099059     0.93030
O128        O  0.84490108  0.12564719  0.93542335    -0.83070
O129        O  0.88295460  0.08475902  0.16525809    -0.82530
C130        C  0.89987239  0.09950133  0.02170549     0.96830
O131        O  0.87430151  0.08733696  0.03721977    -0.71650
O132        O  0.88411419  0.03608860  0.07942656    -0.75240
Al133      Al  0.86370241  0.07971796  0.08440333     1.48980
C134        C  0.90064800  0.01994796  0.10184179     0.92080
O135        O  0.96522567  0.07704885  0.11550269    -0.81460
O136        O  0.91587126  0.16348214  0.12128088    -0.75020
Al137      Al  0.92255192  0.08198958  0.13769078     1.90120
O138        O  0.96576984  0.12619408  0.08837439    -0.74080
O139        O  0.87580921  0.15642359  0.06822446    -0.73940
O140        O  0.92312401  0.11520384  0.03762789    -0.79600
O141        O  0.83757336  0.12053571  0.08749980    -0.77800
O142        O  0.90171317  0.09938148  0.10080565    -1.13930
O143        O  0.84495160  0.06794281  0.12775021    -0.73130
C144        C  0.85353204  0.07385191  0.15825818     0.97590
C145        C  0.98126027  0.10050078  0.10027784     0.93990
Al146      Al  0.91868019  0.13691754  0.08064458     1.55560
O147        O  0.91419585  0.03526008  0.12674942    -0.77750
C148        C  0.84514092  0.14931766  0.07512362     0.98150
C149        C  0.92758441  0.15546962  0.15023342     0.93030
O150        O  0.93528242  0.12485344  0.15681927    -0.83070
O151        O  0.15516524  0.12281687  0.93684212    -0.82530
C152        C  0.01958225  0.10101930  0.90187233     0.96830
O153        O  0.03616180  0.11668177  0.92476755    -0.71650
O154        O  0.08855464  0.12647755  0.96636109    -0.75240
Al155      Al  0.08027579  0.13706401  0.91927102     1.48980
C156        C  0.09910991  0.10026086  0.98207223     0.92080
O157        O  0.12457348  0.03404704  0.91394631    -0.81460
O158        O  0.12446643  0.06530402  0.84634773    -0.75020
Al159      Al  0.13537250  0.08066019  0.92313911     1.90120
O160        O  0.07535655  0.03537836  0.88742795    -0.74080
O161        O  0.08511906  0.11890452  0.83811704    -0.73940
O162        O  0.03469403  0.08816254  0.87637820    -0.79600
O163        O  0.06809648  0.15633993  0.87601056    -0.77800
O164        O  0.09883265  0.09872040  0.90263279    -1.13930
O165        O  0.12209772  0.16239140  0.91574235    -0.73130
C166        C  0.15023233  0.15363751  0.92892970     0.97590
C167        C  0.09885572  0.01880755  0.90199527     0.93990
Al168      Al  0.08137287  0.07868066  0.86541210     1.55560
O169        O  0.11259606  0.07567427  0.96599623    -0.77750
C170        C  0.07407382  0.14832720  0.84531444     0.98150
C171        C  0.15517451  0.07196478  0.85394055     0.93030
O172        O  0.16247275  0.08398250  0.88297408    -0.83070
O173        O  0.11834465  0.16343551  0.08635822    -0.82530
C174        C  0.09984164  0.01989850  0.09956417     0.96830
O175        O  0.12540458  0.03561402  0.08766126    -0.71650
O176        O  0.11360871  0.07692307  0.03597713    -0.75240
Al177      Al  0.13542343  0.08279899  0.07896425     1.48980
C178        C  0.09898433  0.10058879  0.01967673     0.92080
O179        O  0.03481730  0.11578067  0.07688489    -0.81460
O180        O  0.08388122  0.11895558  0.16324272    -0.75020
Al181      Al  0.07808714  0.13700969  0.08234867     1.90120
O182        O  0.03411584  0.08711243  0.12525396    -0.74080
O183        O  0.12414404  0.06634978  0.15547812    -0.73940
O184        O  0.07616282  0.03581117  0.11443937    -0.79600
O185        O  0.16165580  0.08698627  0.11948130    -0.77800
O186        O  0.09792766  0.09938731  0.09904767    -1.13930
O187        O  0.15431297  0.12620272  0.06553829    -0.73130
C188        C  0.14673488  0.15673775  0.07295762     0.97590
C189        C  0.01868373  0.10017589  0.10007754     0.93990
Al190      Al  0.08097876  0.07884116  0.13624620     1.55560
O191        O  0.08706278  0.12643248  0.03513238    -0.77750
C192        C  0.15459957  0.07429368  0.14826982     0.98150
C193        C  0.07166011  0.14788416  0.15614207     0.93030
O194        O  0.06515569  0.15590509  0.12556210    -0.83070
C195        C  0.50013489  0.26452798  0.23797594    -0.00170
C196        C  0.50023307  0.24027296  0.26274979    -0.00170
C197        C  0.23755731  0.26219296  0.50082335    -0.00170
C198        C  0.26175685  0.23725464  0.50001666    -0.00170
C199        C  0.23782614  0.50163067  0.26253284    -0.00170
C200        C  0.26282419  0.50196454  0.23822764    -0.00170
C201        C  0.23176955  0.24607973  0.00048542    -0.00170
C202        C  0.25647806  0.27045113  0.00121913    -0.00170
C203        C  0.24371992  0.00309885  0.23347570    -0.00170
C204        C  0.26747257  0.00295279  0.25889680    -0.00170
C205        C  0.49978445  0.76561397  0.74084660    -0.00170
C206        C  0.50015392  0.73835620  0.76251665    -0.00170
C207        C  0.23073768  0.74547605  0.50329139    -0.00170
C208        C  0.25500109  0.77039246  0.50178641    -0.00170
C209        C  0.49988929  0.73285840  0.24624116    -0.00170
C210        C  0.50089498  0.75989190  0.26822995    -0.00170
O211        O  0.34333921  0.87869773  0.43358689    -0.82530
C212        C  0.48216305  0.90019176  0.40290997     0.96830
O213        O  0.46556480  0.88486647  0.42599949    -0.71650
O214        O  0.41307091  0.87771696  0.46729209    -0.75240
Al215      Al  0.42084224  0.86498862  0.42132212     1.48980
C216        C  0.39980909  0.90304064  0.48211421     0.92080
O217        O  0.37555888  0.96725409  0.41277039    -0.81460
O218        O  0.37901783  0.93559353  0.34565332    -0.75020
Al219      Al  0.36381510  0.92063950  0.42128647     1.90120
O220        O  0.42571042  0.96602152  0.38776528    -0.74080
O221        O  0.41748075  0.88154686  0.33968536    -0.73940
O222        O  0.46686453  0.91325235  0.37778941    -0.79600
O223        O  0.43233236  0.84466995  0.37905658    -0.77800
O224        O  0.40193994  0.90271487  0.40315313    -1.13930
O225        O  0.37931555  0.83870195  0.41925656    -0.73130
C226        C  0.34985090  0.84753692  0.42882232     0.97590
C227        C  0.40161638  0.98256239  0.40148347     0.93990
Al228      Al  0.42063909  0.92233496  0.36619190     1.55560
O229        O  0.38343935  0.92552271  0.46564076    -0.77750
C230        C  0.42708997  0.85190728  0.34808009     0.98150
C231        C  0.34792301  0.92897226  0.35076485     0.93030
O232        O  0.33854212  0.91743046  0.37938822    -0.83070
O233        O  0.41552029  0.12014819  0.33780397    -0.82530
C234        C  0.40318477  0.10108659  0.48145542     0.96830
O235        O  0.41511554  0.12685247  0.46600675    -0.71650
O236        O  0.46541552  0.11560320  0.42377814    -0.75240
Al237      Al  0.42298077  0.13743940  0.41884600     1.48980
C238        C  0.48140054  0.10053682  0.40033062     0.92080
O239        O  0.42490390  0.03652707  0.38624955    -0.81460
O240        O  0.33837665  0.08634962  0.38261923    -0.75020
Al241      Al  0.41919338  0.07974140  0.36450449     1.90120
O242        O  0.37601191  0.03581353  0.41363128    -0.74080
O243        O  0.34681483  0.12633823  0.43565200    -0.73940
O244        O  0.38774909  0.07773090  0.46536782    -0.79600
O245        O  0.38303254  0.16432362  0.41592488    -0.77800
O246        O  0.40262247  0.09998519  0.40204748    -1.13930
O247        O  0.43541098  0.15645007  0.37553888    -0.73130
C248        C  0.42808490  0.14898085  0.34498827     0.97590
C249        C  0.40151646  0.02025738  0.40132683     0.93990
Al250      Al  0.36554375  0.08299398  0.42256443     1.55560
O251        O  0.46609346  0.08834778  0.37467742    -0.77750
C252        C  0.35446573  0.15703159  0.42872707     0.98150
C253        C  0.34543650  0.07383935  0.35380431     0.93030
O254        O  0.37589646  0.06685497  0.34591407    -0.83070
O255        O  0.62383368  0.84128940  0.41619525    -0.82530
C256        C  0.59913033  0.98471832  0.40142609     0.96830
O257        O  0.62456672  0.96968999  0.41400994    -0.71650
O258        O  0.61421179  0.92790440  0.46580224    -0.75240
Al259      Al  0.63618014  0.92330434  0.42264795     1.48980
C260        C  0.60071107  0.90335969  0.48192952     0.92080
O261        O  0.53677083  0.88471767  0.42523303    -0.81460
O262        O  0.58416618  0.88374703  0.33841667    -0.75020
Al263      Al  0.58158996  0.86581877  0.41970495     1.90120
O264        O  0.53488901  0.91465658  0.37768607    -0.74080
O265        O  0.62381186  0.93697570  0.34545149    -0.73940
O266        O  0.57599594  0.96801335  0.38634812    -0.79600
O267        O  0.66278154  0.92053323  0.38208129    -0.77800
O268        O  0.59942546  0.90456953  0.40265995    -1.13930
O269        O  0.65685967  0.88156569  0.43600576    -0.73130
C270        C  0.65207793  0.85055757  0.42882495     0.97590
C271        C  0.51992037  0.90055041  0.40267697     0.93990
Al272      Al  0.58125709  0.92413378  0.36544696     1.55560
O273        O  0.58992278  0.87711776  0.46640627    -0.77750
C274        C  0.65469041  0.93104543  0.35268749     0.98150
C275        C  0.57416019  0.85406517  0.34605155     0.93030
O276        O  0.56952430  0.84596914  0.37692149    -0.83070
O277        O  0.61938318  0.08881272  0.33881234    -0.82530
C278        C  0.59883826  0.10192659  0.48265356     0.96830
O279        O  0.62467044  0.09096389  0.46673181    -0.71650
O280        O  0.61439631  0.03859933  0.42457278    -0.75240
Al281      Al  0.63517720  0.08244943  0.41961806     1.48980
C282        C  0.59905654  0.02233265  0.40118124     0.92080
O283        O  0.53503382  0.07891924  0.38436535    -0.81460
O284        O  0.58189097  0.16586616  0.38386312    -0.75020
Al285      Al  0.57856529  0.08479922  0.36455176     1.90120
O286        O  0.53323832  0.12617343  0.41471717    -0.74080
O287        O  0.62155595  0.15842862  0.43674984    -0.73940
O288        O  0.57444700  0.11557236  0.46664653    -0.79600
O289        O  0.66020905  0.12390972  0.41580004    -0.77800
O290        O  0.59740295  0.10160137  0.40271435    -1.13930
O291        O  0.65504856  0.06945840  0.37690916    -0.73130
C292        C  0.64792856  0.07615054  0.34620758     0.97590
C293        C  0.51852042  0.10116237  0.40067121     0.93990
Al294      Al  0.57926872  0.13816571  0.42361245     1.55560
O295        O  0.58688124  0.03771035  0.37549969    -0.77750
C296        C  0.65206672  0.15251335  0.42845747     0.98150
C297        C  0.57157032  0.15871111  0.35422370     0.93030
O298        O  0.56626939  0.12799463  0.34568768    -0.83070
O299        O  0.56335925  0.84766726  0.62318987    -0.82530
C300        C  0.60094187  0.98186229  0.59954252     0.96830
O301        O  0.57730763  0.96587148  0.61463184    -0.71650
O302        O  0.53464499  0.91507389  0.62544891    -0.75240
Al303      Al  0.58157980  0.92271318  0.63616977     1.48980
C304        C  0.51930085  0.90424213  0.59925976     0.92080
O305        O  0.58754395  0.87755009  0.53446121    -0.81460
O306        O  0.65477347  0.87563050  0.56614094    -0.75020
Al307      Al  0.57762972  0.86682937  0.58094227     1.90120
O308        O  0.61606250  0.92590516  0.53599486    -0.74080
O309        O  0.66331691  0.91526377  0.62074697    -0.73940
O310        O  0.62690038  0.96648650  0.58813767    -0.79600
O311        O  0.62407201  0.93484753  0.65529519    -0.77800
O312        O  0.59869487  0.90310671  0.59874318    -1.13930
O313        O  0.58428537  0.88141246  0.66248189    -0.73130
C314        C  0.57156575  0.85293434  0.65386446     0.97590
C315        C  0.60058031  0.90298414  0.51940634     0.93990
Al316      Al  0.63696224  0.91942671  0.57947409     1.55560
O317        O  0.53547958  0.89008537  0.57523430    -0.77750
C318        C  0.65481605  0.92738486  0.64944780     0.98150
C319        C  0.64551183  0.84510711  0.57182226     0.93030
O320        O  0.61682945  0.83889589  0.58494921    -0.83070
O321        O  0.65645836  0.06510687  0.62368662    -0.82530
C322        C  0.52007990  0.09990874  0.60219682     0.96830
O323        O  0.53639494  0.07582166  0.61621192    -0.71650
O324        O  0.58844146  0.03415225  0.62518781    -0.75240
Al325      Al  0.58031978  0.08040157  0.63715037     1.48980
C326        C  0.60058123  0.01920808  0.59941303     0.92080
O327        O  0.62514988  0.08905741  0.53519358    -0.81460
O328        O  0.62554560  0.15642526  0.56837929    -0.75020
Al329      Al  0.63666160  0.07907619  0.58163255     1.90120
O330        O  0.57636638  0.11654005  0.53732296    -0.74080
O331        O  0.58650747  0.16261292  0.62299815    -0.73940
O332        O  0.53562704  0.12586962  0.59061720    -0.79600
O333        O  0.56813474  0.12247660  0.65731562    -0.77800
O334        O  0.59966512  0.09865036  0.59991242    -1.13930
O335        O  0.62161733  0.08280609  0.66338745    -0.73130
C336        C  0.65046308  0.07120918  0.65470429     0.97590
C337        C  0.59945868  0.10170725  0.52035212     0.93990
Al338      Al  0.58247825  0.13692132  0.58142166     1.55560
O339        O  0.61521177  0.03576777  0.57586540    -0.77750
C340        C  0.57493198  0.15355107  0.65172971     0.98150
C341        C  0.65629254  0.14866224  0.57443849     0.93030
O342        O  0.66345802  0.11935670  0.58570215    -0.83070
O343        O  0.41749650  0.16385274  0.61939826    -0.82530
C344        C  0.40084597  0.01988511  0.60007296     0.96830
O345        O  0.41229297  0.03544442  0.62599363    -0.71650
O346        O  0.46558549  0.07684331  0.61713792    -0.75240
Al347      Al  0.42114077  0.08240630  0.63696863     1.48980
C348        C  0.48237345  0.10000011  0.60194887     0.92080
O349        O  0.42650478  0.11568814  0.53551724    -0.81460
O350        O  0.33938109  0.12035372  0.58304595    -0.75020
Al351      Al  0.42094327  0.13686084  0.57907542     1.90120
O352        O  0.37766113  0.08817246  0.53397293    -0.74080
O353        O  0.34541415  0.06662651  0.62231180    -0.73940
O354        O  0.38738910  0.03618251  0.57569431    -0.79600
O355        O  0.37936069  0.08615691  0.66203410    -0.77800
O356        O  0.40286436  0.09952130  0.59864224    -1.13930
O357        O  0.43362249  0.12537665  0.65664928    -0.73130
C358        C  0.42818105  0.15623425  0.64879128     0.97590
C359        C  0.40322254  0.10070703  0.51893504     0.93990
Al360      Al  0.36587438  0.07960962  0.58032083     1.55560
O361        O  0.46734368  0.12533874  0.58868732    -0.77750
C362        C  0.35077391  0.07407156  0.65313416     0.98150
C363        C  0.34778057  0.14963845  0.57224186     0.93030
O364        O  0.37859588  0.15640086  0.56582366    -0.83070
O365        O  0.43499486  0.87693383  0.65528921    -0.82530
C366        C  0.40040742  0.90351319  0.51948268     0.96830
O367        O  0.42467851  0.88931742  0.53522138    -0.71650
O368        O  0.46705434  0.87853811  0.58595842    -0.75240
Al369      Al  0.42081826  0.86654592  0.57791152     1.48980
C370        C  0.48196932  0.90376401  0.59932913     0.92080
O371        O  0.41280999  0.96680852  0.62590424    -0.81460
O372        O  0.34498113  0.93393196  0.62541756    -0.75020
Al373      Al  0.42204899  0.91992468  0.63655071     1.90120
O374        O  0.38470365  0.96597580  0.57727587    -0.74080
O375        O  0.33936051  0.87997835  0.58562826    -0.73940
O376        O  0.37456873  0.91437083  0.53527791    -0.79600
O377        O  0.37890272  0.84632064  0.56528782    -0.77800
O378        O  0.40259862  0.90294203  0.59883533    -1.13930
O379        O  0.41882416  0.83863537  0.61783489    -0.73130
C380        C  0.42925907  0.84612071  0.64738187     0.97590
C381        C  0.40021949  0.98224334  0.60045602     0.93990
Al382      Al  0.36434664  0.92189390  0.58233063     1.55560
O383        O  0.46550818  0.92609616  0.61573790    -0.77750
C384        C  0.34824771  0.85146722  0.57319929     0.98150
C385        C  0.35265738  0.92722366  0.65599498     0.93030
O386        O  0.38172071  0.91555706  0.66303835    -0.83070
C387        C  0.75469671  0.73030725  0.50109232    -0.00170
C388        C  0.73152113  0.75614597  0.50027164    -0.00170
C389        C  0.23440518  0.50199192  0.74099703    -0.00170
C390        C  0.25981908  0.49984143  0.76496317    -0.00170
C391        C  0.50155725  0.25553966  0.77079811    -0.00170
C392        C  0.50060784  0.23243368  0.74469922    -0.00170
O393        O  0.61979469  0.66452226  0.08543381    -0.82530
C394        C  0.59861454  0.52104386  0.10061076     0.96830
O395        O  0.62433247  0.53627707  0.08837094    -0.71650
O396        O  0.61536518  0.57822012  0.03666473    -0.75240
Al397      Al  0.63605351  0.58311403  0.08014932     1.48980
C398        C  0.59981966  0.60128913  0.02039830     0.92080
O399        O  0.53547709  0.61714594  0.07673690    -0.81460
O400        O  0.58506308  0.62166741  0.16302280    -0.75020
Al401      Al  0.57903623  0.63825879  0.08206716     1.90120
O402        O  0.53445898  0.59028418  0.12599220    -0.74080
O403        O  0.62324097  0.56765286  0.15646671    -0.73940
O404        O  0.57535391  0.53747058  0.11575332    -0.79600
O405        O  0.66203704  0.58627027  0.12097862    -0.77800
O406        O  0.59852759  0.60061725  0.09948297    -1.13930
O407        O  0.65609990  0.62581515  0.06790259    -0.73130
C408        C  0.64912291  0.65651141  0.07484791     0.97590
C409        C  0.51913165  0.60245563  0.10035122     0.93990
Al410      Al  0.58098378  0.58101351  0.13689995     1.55560
O411        O  0.58741859  0.62693230  0.03549955    -0.77750
C412        C  0.65389342  0.57479604  0.14996353     0.98150
C413        C  0.57358378  0.65084281  0.15542406     0.93030
O414        O  0.56640535  0.65800599  0.12484016    -0.83070
O415        O  0.66256846  0.62081112  0.91876953    -0.82530
C416        C  0.51981535  0.60113909  0.90042224     0.96830
O417        O  0.53490086  0.62532111  0.91555034    -0.71650
O418        O  0.57647014  0.61595864  0.96686851    -0.75240
Al419      Al  0.58122826  0.63749049  0.92375237     1.48980
C420        C  0.59965357  0.60076298  0.98307191     0.92080
O421        O  0.61399204  0.53701030  0.92523326    -0.81460
O422        O  0.62351537  0.58701796  0.83914087    -0.75020
Al423      Al  0.63590622  0.58022103  0.92122738     1.90120
O424        O  0.58808057  0.53691668  0.87530687    -0.74080
O425        O  0.57011565  0.62766352  0.84492379    -0.73940
O426        O  0.53622429  0.57972744  0.88266769    -0.79600
O427        O  0.58328763  0.66514142  0.88429777    -0.77800
O428        O  0.59913099  0.60059250  0.90310013    -1.13930
O429        O  0.62393173  0.65752400  0.93592569    -0.73130
C430        C  0.65459675  0.65028508  0.92929260     0.97590
C431        C  0.59939461  0.52114411  0.90118720     0.93990
Al432      Al  0.58109660  0.58427234  0.86408763     1.55560
O433        O  0.62485634  0.58815803  0.96774482    -0.77750
C434        C  0.57370027  0.65829553  0.85444355     0.98150
C435        C  0.65172573  0.57467417  0.84863491     0.93030
O436        O  0.65621608  0.56747065  0.87963282    -0.83070
O437        O  0.37689201  0.56630675  0.15558074    -0.82530
C438        C  0.40234772  0.60085947  0.02040608     0.96830
O439        O  0.38877623  0.57638844  0.03664258    -0.71650
O440        O  0.37610572  0.53515497  0.08870840    -0.75240
Al441      Al  0.36595305  0.58188629  0.07923321     1.48980
C442        C  0.40184001  0.51970652  0.10028830     0.92080
O443        O  0.46641517  0.58914457  0.12567530    -0.81460
O444        O  0.43401369  0.65695188  0.12606135    -0.75020
Al445      Al  0.41990201  0.57953614  0.13659032     1.90120
O446        O  0.46523691  0.61764726  0.07720102    -0.74080
O447        O  0.37984650  0.66365109  0.08689871    -0.73940
O448        O  0.41276296  0.62736956  0.03583785    -0.79600
O449        O  0.34682677  0.62411954  0.06534042    -0.77800
O450        O  0.40265408  0.59970009  0.09950302    -1.13930
O451        O  0.33902528  0.58594475  0.11936355    -0.73130
C452        C  0.34636135  0.57392129  0.14836150     0.97590
C453        C  0.48164036  0.60229009  0.10037240     0.93990
Al454      Al  0.42140469  0.63805189  0.08288100     1.55560
O455        O  0.42568809  0.53615472  0.11455379    -0.77750
C456        C  0.35173067  0.65491132  0.07377951     0.98150
C457        C  0.42757388  0.64902281  0.15670335     0.93030
O458        O  0.41610539  0.61969402  0.16367426    -0.83070
O459        O  0.33835290  0.58601409  0.88388488    -0.82530
C460        C  0.48226996  0.60048113  0.90086058     0.96830
O461        O  0.46648664  0.58858469  0.87531121    -0.71650
O462        O  0.42503942  0.53659161  0.88704171    -0.75240
Al463      Al  0.41923984  0.57974724  0.86566258     1.48980
C464        C  0.40184078  0.52020493  0.90233585     0.92080
O465        O  0.38787243  0.57697977  0.96677834    -0.81460
O466        O  0.38294436  0.66367638  0.91731868    -0.75020
Al467      Al  0.36566468  0.58246727  0.92394377     1.90120
O468        O  0.41473144  0.62633422  0.96730570    -0.74080
O469        O  0.43564019  0.65595754  0.87725285    -0.73940
O470        O  0.46630355  0.61497220  0.92489055    -0.79600
O471        O  0.41515053  0.62052976  0.83905539    -0.77800
O472        O  0.40281826  0.59957012  0.90343940    -1.13930
O473        O  0.37593068  0.56634669  0.84783044    -0.73130
C474        C  0.34524218  0.57291392  0.85537031     0.97590
C475        C  0.40260235  0.60072240  0.98289374     0.93990
Al476      Al  0.42317490  0.63686660  0.92029221     1.55560
O477        O  0.37643207  0.53545216  0.91512935    -0.77750
C478        C  0.42741943  0.64943477  0.84677871     0.98150
C479        C  0.35419648  0.65634048  0.92982234     0.93030
O480        O  0.34666650  0.62569432  0.93698193    -0.83070
O481        O  0.58232996  0.38320197  0.83789087    -0.82530
C482        C  0.59929237  0.40253327  0.98193179     0.96830
O483        O  0.58648390  0.37715930  0.96645622    -0.71650
O484        O  0.53482694  0.38600836  0.92407099    -0.75240
Al485      Al  0.57851957  0.36570302  0.91938303     1.48980
C486        C  0.51869976  0.40226086  0.90138538     0.92080
O487        O  0.57609445  0.46747239  0.88545592    -0.81460
O488        O  0.66111415  0.41773530  0.88112481    -0.75020
Al489      Al  0.58034979  0.42372399  0.86466163     1.90120
O490        O  0.62434307  0.46794042  0.91385828    -0.74080
O491        O  0.65526384  0.37839769  0.93435726    -0.73940
O492        O  0.61475681  0.42578612  0.96567870    -0.79600
O493        O  0.61936979  0.33962297  0.91640260    -0.77800
O494        O  0.59782963  0.40364531  0.90216801    -1.13930
O495        O  0.56652753  0.34588329  0.87652239    -0.73130
C496        C  0.57182989  0.35373495  0.84569340     0.97590
C497        C  0.59923977  0.48354495  0.90107400     0.93990
Al498      Al  0.63536850  0.42100523  0.92191070     1.55560
O499        O  0.53394674  0.41589430  0.87646280    -0.77750
C500        C  0.64833268  0.34754692  0.92789058     0.98150
C501        C  0.65354251  0.42855429  0.85178798     0.93030
O502        O  0.62296931  0.43557956  0.84459277    -0.83070
O503        O  0.66215070  0.38355170  0.08525945    -0.82530
C504        C  0.51881117  0.40127822  0.10028910     0.96830
O505        O  0.53451759  0.37625049  0.08738629    -0.71650
O506        O  0.57648059  0.38675461  0.03575967    -0.75240
Al507      Al  0.58144629  0.36581781  0.07936300     1.48980
C508        C  0.59940930  0.40268669  0.01958818     0.92080
O509        O  0.61427851  0.46740752  0.07766322    -0.81460
O510        O  0.61834950  0.41890218  0.16384818    -0.75020
Al511      Al  0.63547589  0.42398336  0.08231692     1.90120
O512        O  0.58525230  0.46786045  0.12569758    -0.74080
O513        O  0.56663904  0.37759144  0.15664448    -0.73940
O514        O  0.53460722  0.42460552  0.11597995    -0.79600
O515        O  0.58466813  0.33940069  0.11991733    -0.77800
O516        O  0.59815171  0.40369839  0.09941633    -1.13930
O517        O  0.62439391  0.34665270  0.06699153    -0.73130
C518        C  0.65494721  0.35437203  0.07361408     0.97590
C519        C  0.59831297  0.48344912  0.10061220     0.93990
Al520      Al  0.57799042  0.42074184  0.13700584     1.55560
O521        O  0.62443600  0.41592346  0.03515359    -0.77750
C522        C  0.57381746  0.34703184  0.14926193     0.98150
C523        C  0.64742276  0.43025700  0.15610740     0.93030
O524        O  0.65490180  0.43630025  0.12530000    -0.83070
O525        O  0.41616387  0.33944820  0.88107486    -0.82530
C526        C  0.40193174  0.48271444  0.90168238     0.96830
O527        O  0.41431269  0.46759971  0.87597216    -0.71650
O528        O  0.46543176  0.42520346  0.88562463    -0.75240
Al529      Al  0.42224846  0.42065505  0.86435620     1.48980
C530        C  0.48138003  0.40204176  0.90135821     0.92080
O531        O  0.42404297  0.38614857  0.96549320    -0.81460
O532        O  0.33849830  0.38270361  0.91552192    -0.75020
Al533      Al  0.41919156  0.36547249  0.92176548     1.90120
O534        O  0.37572585  0.41442751  0.96625921    -0.74080
O535        O  0.34618440  0.43630794  0.87652858    -0.73940
O536        O  0.38658804  0.46627949  0.92479242    -0.79600
O537        O  0.38168090  0.41814531  0.83750608    -0.77800
O538        O  0.40236266  0.40322943  0.90194514    -1.13930
O539        O  0.43450521  0.37767667  0.84453119    -0.73130
C540        C  0.42768845  0.34698958  0.85193895     0.97590
C541        C  0.40094757  0.40164629  0.98172413     0.93990
Al542      Al  0.36514241  0.42315451  0.91926945     1.55560
O543        O  0.46595348  0.37659214  0.91391436    -0.77750
C544        C  0.35285485  0.42983496  0.84561840     0.98150
C545        C  0.34579410  0.35337904  0.92686098     0.93030
O546        O  0.37625749  0.34585882  0.93387618    -0.83070
O547        O  0.41526792  0.38193308  0.16280260    -0.82530
C548        C  0.40108156  0.40150074  0.01929883     0.96830
O549        O  0.41390824  0.37614861  0.03469376    -0.71650
O550        O  0.46533511  0.38565295  0.07702980    -0.75240
Al551      Al  0.42180255  0.36473531  0.08164357     1.48980
C552        C  0.48141648  0.40100698  0.10035974     0.92080
O553        O  0.42517745  0.46556786  0.11453115    -0.81460
O554        O  0.33829859  0.41595676  0.11968441    -0.75020
Al555      Al  0.41925999  0.42235448  0.13621241     1.90120
O556        O  0.37579544  0.46663761  0.08802411    -0.74080
O557        O  0.34492794  0.37674579  0.06634197    -0.73940
O558        O  0.38557299  0.42468818  0.03554542    -0.79600
O559        O  0.38131255  0.33829295  0.08432427    -0.77800
O560        O  0.40205389  0.40233090  0.09876891    -1.13930
O561        O  0.43356808  0.34513924  0.12473907    -0.73130
C562        C  0.42624710  0.35256523  0.15525347     0.97590
C563        C  0.40159027  0.48202410  0.10007312     0.93990
Al564      Al  0.36457406  0.41957964  0.07910821     1.55560
O565        O  0.46597044  0.41349631  0.12573359    -0.77750
C566        C  0.35239279  0.34599717  0.07268488     0.98150
C567        C  0.34580905  0.42839229  0.14838670     0.93030
O568        O  0.37644487  0.43565254  0.15538766    -0.83070
C569        C  0.76824170  0.49937655  0.74390922    -0.00170
C570        C  0.74378497  0.49919973  0.76869466    -0.00170
C571        C  0.00035461  0.24056286  0.23730142    -0.00170
C572        C  0.99991548  0.26334561  0.26353032    -0.00170
C573        C  0.74481649  0.23302870  0.50180233    -0.00170
C574        C  0.77106767  0.25583079  0.50102796    -0.00170
C575        C  0.74351583  0.50152807  0.23276662    -0.00170
C576        C  0.76859738  0.50247004  0.25685127    -0.00170
O577        O  0.06612191  0.65661962  0.37596495    -0.82530
C578        C  0.10000566  0.52067660  0.40214018     0.96830
O579        O  0.07598992  0.53697110  0.38823487    -0.71650
O580        O  0.03499262  0.58889430  0.37652949    -0.75240
Al581      Al  0.08167830  0.57970148  0.36576535     1.48980
C582        C  0.01981678  0.60163999  0.40199877     0.92080
O583        O  0.08831644  0.62737474  0.46645198    -0.81460
O584        O  0.15589204  0.62683954  0.43481073    -0.75020
Al585      Al  0.07927645  0.63789796  0.41933014     1.90120
O586        O  0.11594489  0.57839205  0.46587187    -0.74080
O587        O  0.16263800  0.58739981  0.38151148    -0.73940
O588        O  0.12603511  0.53623001  0.41351956    -0.79600
O589        O  0.12454305  0.56624217  0.34649380    -0.77800
O590        O  0.09903336  0.60023701  0.40267623    -1.13930
O591        O  0.08546160  0.61961507  0.33863649    -0.73130
C592        C  0.07323201  0.64862813  0.34550771     0.97590
C593        C  0.10087007  0.60192871  0.48202541     0.93990
Al594      Al  0.13677320  0.58355227  0.42224148     1.55560
O595        O  0.03620399  0.61664136  0.42532314    -0.77750
C596        C  0.15510085  0.57429905  0.35311330     0.98150
C597        C  0.14827924  0.65725557  0.42711920     0.93030
O598        O  0.11940594  0.66425594  0.41492085    -0.83070
O599        O  0.93437846  0.62957785  0.34604298    -0.82530
C600        C  0.89974673  0.59972576  0.48223103     0.96830
O601        O  0.92381810  0.61471543  0.46689531    -0.71650
O602        O  0.96718812  0.62653929  0.41687736    -0.75240
Al603      Al  0.92034455  0.63787621  0.42428922     1.48980
C604        C  0.98247894  0.60232667  0.40202072     0.92080
O605        O  0.91586493  0.53820519  0.37395004    -0.81460
O606        O  0.84711287  0.56793373  0.37491663    -0.75020
Al607      Al  0.92308027  0.58577983  0.36394999     1.90120
O608        O  0.88797828  0.53797694  0.42280894    -0.74080
O609        O  0.83936142  0.62115115  0.41494200    -0.73940
O610        O  0.87463863  0.58807204  0.46578882    -0.79600
O611        O  0.87699707  0.65704720  0.43597729    -0.77800
O612        O  0.90327378  0.60141052  0.40219424    -1.13930
O613        O  0.91921103  0.66666219  0.38521581    -0.73130
C614        C  0.92922376  0.66003325  0.35537409     0.97590
C615        C  0.90387044  0.52237435  0.39946962     0.93990
Al616      Al  0.86574602  0.58064324  0.41819681     1.55560
O617        O  0.96644072  0.58077951  0.38428175    -0.77750
C618        C  0.84664949  0.65000873  0.42759063     0.98150
C619        C  0.85412874  0.57564774  0.34441158     0.93030
O620        O  0.88253966  0.58897186  0.33747481    -0.83070
O621        O  0.87883493  0.56695118  0.65675537    -0.82530
C622        C  0.89875526  0.59991632  0.51981348     0.96830
O623        O  0.88269781  0.57703056  0.53619267    -0.71650
O624        O  0.87496536  0.53481274  0.58926156    -0.75240
Al625      Al  0.86324168  0.58161470  0.58089929     1.48980
C626        C  0.90083720  0.51947983  0.60093779     0.92080
O627        O  0.96629715  0.58784284  0.62326051    -0.81460
O628        O  0.93288899  0.65750027  0.62360566    -0.75020
Al629      Al  0.92039096  0.57958790  0.63588930     1.90120
O630        O  0.96423384  0.61738606  0.57565186    -0.74080
O631        O  0.87944152  0.66313906  0.58455449    -0.73940
O632        O  0.91181401  0.62522534  0.53499451    -0.79600
O633        O  0.84275610  0.62396371  0.56892148    -0.77800
O634        O  0.90150279  0.59938377  0.59913308    -1.13930
O635        O  0.83825001  0.58455048  0.62286435    -0.73130
C636        C  0.84774601  0.57335971  0.65156502     0.97590
C637        C  0.98089942  0.60104255  0.59781864     0.93990
Al638      Al  0.92035008  0.63728078  0.58125103     1.55560
O639        O  0.92488447  0.53599506  0.61463426    -0.77750
C640        C  0.85010613  0.65490375  0.57427517     0.98150
C641        C  0.92764904  0.65010003  0.65448882     0.93030
O642        O  0.91816397  0.62028343  0.66259805    -0.83070
O643        O  0.06244222  0.62275671  0.65451371    -0.82530
C644        C  0.10082278  0.60191740  0.51962710     0.96830
O645        O  0.07738790  0.61744237  0.53544722    -0.71650
O646        O  0.03380782  0.62667063  0.58610187    -0.75240
Al647      Al  0.08079477  0.63764004  0.57944457     1.48980
C648        C  0.01817527  0.60058910  0.59684523     0.92080
O649        O  0.08483122  0.53437127  0.62252781    -0.81460
O650        O  0.15433606  0.56899065  0.62671049    -0.75020
Al651      Al  0.07590398  0.58063997  0.63444282     1.90120
O652        O  0.11728911  0.53643266  0.57691914    -0.74080
O653        O  0.16210522  0.62242757  0.58669519    -0.73940
O654        O  0.12596519  0.58912006  0.53544642    -0.79600
O655        O  0.12321542  0.65784290  0.56834314    -0.77800
O656        O  0.09770433  0.59951392  0.59877285    -1.13930
O657        O  0.08271593  0.66294132  0.62116238    -0.73130
C658        C  0.07036332  0.65364963  0.64950615     0.97590
C659        C  0.10002659  0.51958749  0.59833531     0.93990
Al660      Al  0.13639354  0.58090963  0.58281268     1.55560
O661        O  0.03404677  0.57623316  0.61068322    -0.77750
C662        C  0.15375606  0.65162371  0.57581558     0.98150
C663        C  0.14453931  0.57299575  0.65726213     0.93030
O664        O  0.11452415  0.58253729  0.66356025    -0.83070
O665        O  0.93058278  0.34526896  0.37774241    -0.82530
C666        C  0.90380202  0.48492708  0.39967038     0.96830
O667        O  0.92674054  0.46797343  0.38469692    -0.71650
O668        O  0.96681516  0.41425349  0.37704524    -0.75240
Al669      Al  0.92093556  0.42367888  0.36480668     1.48980
C670        C  0.98169639  0.40030221  0.40198378     0.92080
O671        O  0.91179178  0.37890006  0.46620354    -0.81460
O672        O  0.84409037  0.38411415  0.43525978    -0.75020
Al673      Al  0.91941994  0.36632425  0.42007084     1.90120
O674        O  0.88703082  0.42937863  0.46525686    -0.74080
O675        O  0.83905334  0.42187566  0.38073491    -0.73940
O676        O  0.87829446  0.47029406  0.41253785    -0.79600
O677        O  0.87916796  0.43645065  0.34467926    -0.77800
O678        O  0.90223002  0.40501803  0.40229651    -1.13930
O679        O  0.91752944  0.38280659  0.33863713    -0.73130
C680        C  0.92657178  0.35297906  0.34670845     0.97590
C681        C  0.90064223  0.40500078  0.48153099     0.93990
Al682      Al  0.86557858  0.42470235  0.42165300     1.55560
O683        O  0.96483660  0.38449566  0.42462626    -0.77750
C684        C  0.84805970  0.43127704  0.35121936     0.98150
C685        C  0.84854962  0.35277811  0.43027336     0.93030
O686        O  0.87655379  0.34232708  0.41803500    -0.83070
O687        O  0.16228079  0.41676812  0.38115251    -0.82530
C688        C  0.01936313  0.40031181  0.40199239     0.96830
O689        O  0.03456750  0.41390766  0.37688041    -0.71650
O690        O  0.07567064  0.46665872  0.38802032    -0.75240
Al691      Al  0.08105196  0.42358800  0.36541760     1.48980
C692        C  0.09984910  0.48302395  0.40182003     0.92080
O693        O  0.11404063  0.42603761  0.46464821    -0.81460
O694        O  0.12151961  0.33959779  0.41422326    -0.75020
Al695      Al  0.13612781  0.42070742  0.42176918     1.90120
O696        O  0.08910200  0.37546537  0.46535484    -0.74080
O697        O  0.06745308  0.34597289  0.37571207    -0.73940
O698        O  0.03595937  0.38471130  0.42485264    -0.79600
O699        O  0.08441976  0.38365697  0.33793040    -0.77800
O700        O  0.09884417  0.40315380  0.40205201    -1.13930
O701        O  0.12385689  0.43700472  0.34586826    -0.73130
C702        C  0.15450773  0.42922802  0.35245774     0.97590
C703        C  0.10005879  0.40171958  0.48074824     0.93990
Al704      Al  0.08014462  0.36481550  0.41867598     1.55560
O705        O  0.12587940  0.46753688  0.41267979    -0.77750
C706        C  0.07337860  0.35419469  0.34509111     0.98150
C707        C  0.14981863  0.34761767  0.42731361     0.93030
O708        O  0.15570293  0.37831089  0.43538284    -0.83070
O709        O  0.88431564  0.33884426  0.58329870    -0.82530
C710        C  0.90077366  0.48180923  0.60141150     0.96830
O711        O  0.87509201  0.46636489  0.58929202    -0.71650
O712        O  0.88538620  0.42692710  0.53597714    -0.75240
Al713      Al  0.86460828  0.41961800  0.57945286     1.48980
C714        C  0.90060807  0.40423544  0.51898154     0.92080
O715        O  0.96565911  0.39050782  0.57408170    -0.81460
O716        O  0.91646137  0.37890346  0.66145154    -0.75020
Al717      Al  0.92347416  0.36686776  0.57959268     1.90120
O718        O  0.96672578  0.41307887  0.62545523    -0.74080
O719        O  0.87670369  0.43327214  0.65632674    -0.73940
O720        O  0.92440420  0.46550785  0.61625861    -0.79600
O721        O  0.83839823  0.41489054  0.61995574    -0.77800
O722        O  0.90258146  0.40273513  0.59843514    -1.13930
O723        O  0.84611011  0.37601933  0.56605350    -0.73130
C724        C  0.85473118  0.34550803  0.57257935     0.97590
C725        C  0.98210342  0.40308537  0.59882936     0.93990
Al726      Al  0.91962785  0.42118243  0.63656431     1.55560
O727        O  0.91328811  0.37844129  0.53357990    -0.77750
C728        C  0.84599270  0.42694220  0.64881265     0.98150
C729        C  0.92989726  0.35098038  0.65212440     0.93030
O730        O  0.93801524  0.34679257  0.62127285    -0.83070
O731        O  0.12541329  0.43577955  0.65278388    -0.82530
C732        C  0.09979079  0.40163699  0.51808479     0.96830
O733        O  0.11463559  0.42520366  0.53427078    -0.71650
O734        O  0.12616018  0.46673301  0.58568593    -0.75240
Al735      Al  0.13657259  0.41947877  0.57700657     1.48980
C736        C  0.10041062  0.48201234  0.59778804     0.92080
O737        O  0.03537404  0.41353458  0.62479422    -0.81460
O738        O  0.06510565  0.34647791  0.62338959    -0.75020
Al739      Al  0.08251203  0.42253410  0.63451733     1.90120
O740        O  0.03566019  0.38838454  0.57467399    -0.74080
O741        O  0.11799530  0.33831653  0.58368121    -0.73940
O742        O  0.08748995  0.37598054  0.53343470    -0.79600
O743        O  0.15491286  0.37581853  0.56415484    -0.77800
O744        O  0.09910408  0.40263493  0.59711847    -1.13930
O745        O  0.16369292  0.41592438  0.61726179    -0.73130
C746        C  0.15603658  0.42855303  0.64587176     0.97590
C747        C  0.01965023  0.40259025  0.59878843     0.93990
Al748      Al  0.07831893  0.36557763  0.58016855     1.55560
O749        O  0.07693064  0.46559873  0.61272785    -0.77750
C750        C  0.14682154  0.34521894  0.57117773     0.98150
C751        C  0.07396411  0.35320358  0.65369795     0.93030
O752        O  0.08680408  0.38197120  0.66086654    -0.83070
C753        C  0.76787168  0.45827610  0.30259015    -0.21040
C754        C  0.78336893  0.47097578  0.27268824    -0.07600
C755        C  0.81760244  0.46159651  0.26581703     0.13270
C756        C  0.83640193  0.44451717  0.29077018    -0.21090
C757        C  0.82297432  0.43834192  0.32350382    -0.07610
C758        C  0.78747755  0.44309184  0.32876118     0.13260
C759        C  0.77041319  0.43441369  0.36221602    -0.24440
H760        H  0.74111818  0.46333261  0.30704774     0.14540
H761        H  0.86298134  0.43885551  0.28537229     0.14570
C762        C  0.83634438  0.47106109  0.23356605    -0.24390
H763        H  0.74247825  0.43928366  0.36132682     0.04780
H764        H  0.78122281  0.45043067  0.38305132     0.08010
H765        H  0.77422653  0.40685423  0.36816647     0.08010
H766        H  0.82012040  0.48511507  0.21546099     0.07990
H767        H  0.84549369  0.44745305  0.22065375     0.07990
H768        H  0.85878424  0.48734499  0.23986015     0.04770
C769        C  0.79490235  0.56134404  0.32669850    -0.21040
C770        C  0.82900016  0.56715569  0.31704397    -0.07600
C771        C  0.83832712  0.56160752  0.28242614     0.13270
C772        C  0.81461457  0.54635347  0.26005975    -0.21090
C773        C  0.78250626  0.53515962  0.27158079    -0.07610
C774        C  0.77140250  0.54620226  0.30418914     0.13260
C775        C  0.73472756  0.54284714  0.31531545    -0.24440
H776        H  0.78676300  0.56779115  0.35240589     0.14540
H777        H  0.82266114  0.54010483  0.23445031     0.14570
C778        C  0.87377974  0.56903926  0.26924716    -0.24390
H779        H  0.73149426  0.54898286  0.34287336     0.04780
H780        H  0.72462742  0.51679634  0.31099770     0.08010
H781        H  0.71916321  0.56145795  0.30070426     0.08010
H782        H  0.89277475  0.55342560  0.28343436     0.07990
H783        H  0.87966360  0.59671877  0.27227570     0.07990
H784        H  0.87638651  0.56269501  0.24167012     0.04770
C785        C  0.77177610  0.31285811  0.47537820    -0.21040
C786        C  0.77865351  0.27795029  0.47056036    -0.07600
C787        C  0.80238722  0.26873354  0.44485166     0.13270
C788        C  0.82315309  0.29419363  0.43007930    -0.21090
C789        C  0.82110687  0.32846157  0.44069692    -0.07610
C790        C  0.79394801  0.33812860  0.46294553     0.13260
C791        C  0.78952635  0.37407861  0.47669354    -0.24440
H792        H  0.75201111  0.32009039  0.49338236     0.14540
H793        H  0.84243278  0.28691829  0.41158158     0.14570
C794        C  0.80620307  0.23254645  0.43256747    -0.24390
H795        H  0.76770399  0.37600241  0.49476729     0.04780
H796        H  0.78446174  0.39218307  0.45539685     0.08010
H797        H  0.81276905  0.38195383  0.49104209     0.08010
H798        H  0.78132914  0.22302906  0.42288765     0.07990
H799        H  0.81584443  0.21611549  0.45326449     0.07990
H800        H  0.82474732  0.23065379  0.41114900     0.04770
C801        C  0.77493390  0.29339966  0.55259177    -0.21040
C802        C  0.78954460  0.26712450  0.53274099    -0.07600
C803        C  0.82527494  0.26236449  0.53457761     0.13270
C804        C  0.84573216  0.28731480  0.55000822    -0.21090
C805        C  0.83137758  0.31682805  0.56436439    -0.07610
C806        C  0.79546732  0.31885959  0.56779027     0.13260
C807        C  0.77866405  0.34816362  0.58639025    -0.24440
H808        H  0.74758210  0.29673797  0.55251160     0.14540
H809        H  0.87327407  0.28466799  0.54869516     0.14570
C810        C  0.84283338  0.23218910  0.51869646    -0.24390
H811        H  0.75060783  0.34439713  0.58849075     0.04780
H812        H  0.78302608  0.37255860  0.57247898     0.08010
H813        H  0.78923490  0.35020039  0.61268275     0.08010
H814        H  0.85994070  0.22002317  0.53780358     0.07990
H815        H  0.82431693  0.21248741  0.51077943     0.07990
H816        H  0.85826724  0.24066428  0.49638593     0.04770
C817        C  0.06551497  0.29412554  0.32622669    -0.21040
C818        C  0.06511236  0.32915075  0.31783353    -0.07600
C819        C  0.05227858  0.33924018  0.28554007     0.13270
C820        C  0.03647342  0.31464122  0.26474068    -0.21090
C821        C  0.03152699  0.28079097  0.27603135    -0.07610
C822        C  0.04909484  0.26976883  0.30560671     0.13260
C823        C  0.05062258  0.23293501  0.31661960    -0.24440
H824        H  0.07698902  0.28589464  0.35010753     0.14540
H825        H  0.02447505  0.32280782  0.24117262     0.14570
C826        C  0.05203916  0.37613075  0.27402593    -0.24390
H827        H  0.03902370  0.23003941  0.34238790     0.04780
H828        H  0.07772609  0.22467939  0.31792654     0.08010
H829        H  0.03739778  0.21576225  0.29852766     0.08010
H830        H  0.07861700  0.38598384  0.27244962     0.07990
H831        H  0.03699978  0.39187135  0.29226520     0.07990
H832        H  0.04025402  0.37913574  0.24835100     0.04770
C833        C  0.93940954  0.29276782  0.33084021    -0.21040
C834        C  0.93479767  0.32684434  0.32012287    -0.07600
C835        C  0.94174267  0.33513807  0.28544582     0.13270
C836        C  0.95744162  0.31056440  0.26438000    -0.21090
C837        C  0.96751396  0.27853344  0.27726658    -0.07610
C838        C  0.95506648  0.26842189  0.30966875     0.13260
C839        C  0.95752715  0.23200351  0.32205116    -0.24440
H840        H  0.93186221  0.28533794  0.35647585     0.14540
H841        H  0.96550863  0.31800322  0.23901816     0.14570
C842        C  0.93529222  0.37030635  0.27084592    -0.24390
H843        H  0.95025826  0.22963079  0.34942357     0.04780
H844        H  0.98354735  0.22182971  0.31915818     0.08010
H845        H  0.93954317  0.21592153  0.30721588     0.08010
H846        H  0.95122573  0.38959274  0.28434495     0.07990
H847        H  0.90781566  0.37686048  0.27341360     0.07990
H848        H  0.94189032  0.37171045  0.24323859     0.04770
C849        C  0.76796428  0.46757016  0.68931810    -0.21040
C850        C  0.77799597  0.46803629  0.72387217    -0.07600
C851        C  0.80558546  0.44686317  0.73389525     0.13270
C852        C  0.82618835  0.43175576  0.70869155    -0.21090
C853        C  0.81904121  0.43587568  0.67381140    -0.07610
C854        C  0.78847458  0.45247191  0.66402108     0.13260
C855        C  0.77897449  0.45743760  0.62696879    -0.24440
H856        H  0.74600762  0.48250571  0.68156038     0.14540
H857        H  0.84865291  0.41739083  0.71620944     0.14570
C858        C  0.81300801  0.43876871  0.77071851    -0.24390
H859        H  0.75491388  0.47221498  0.62411251     0.04780
H860        H  0.77514965  0.43215285  0.61453600     0.08010
H861        H  0.79950960  0.47181374  0.61354195     0.08010
H862        H  0.79233355  0.42213874  0.78071659     0.07990
H863        H  0.81502247  0.46213273  0.78635511     0.07990
H864        H  0.83727845  0.42436467  0.77366438     0.04770
C865        C  0.76788276  0.54665388  0.70135429    -0.21040
C866        C  0.78361073  0.53176726  0.73014036    -0.07600
C867        C  0.81838514  0.53938455  0.73627676     0.13270
C868        C  0.83742712  0.55640050  0.71139597    -0.21090
C869        C  0.82324425  0.56546610  0.67969518    -0.07610
C870        C  0.78736502  0.56277857  0.67555664     0.13260
C871        C  0.76964543  0.57450312  0.64343782    -0.24440
H872        H  0.74106975  0.54161078  0.69676782     0.14540
H873        H  0.86444814  0.56031596  0.71612703     0.14570
C874        C  0.83720566  0.52827541  0.76772887    -0.24390
H875        H  0.74152363  0.57105246  0.64514758     0.04780
H876        H  0.77876501  0.55936403  0.62121484     0.08010
H877        H  0.77481502  0.60216789  0.63912846     0.08010
H878        H  0.84982674  0.55075047  0.77974922     0.07990
H879        H  0.81983755  0.51748338  0.78675442     0.07990
H880        H  0.85687589  0.50896728  0.76093892     0.04770
C881        C  0.70776917  0.43477164  0.17419181    -0.21040
C882        C  0.67318790  0.43804294  0.18286325    -0.07600
C883        C  0.66459435  0.45242180  0.21495545     0.13270
C884        C  0.69062202  0.46671707  0.23530649    -0.21090
C885        C  0.72438041  0.46948803  0.22317524    -0.07610
C886        C  0.73347283  0.45001124  0.19406429     0.13260
C887        C  0.76994432  0.44491314  0.18359291    -0.24440
H888        H  0.71459081  0.42183877  0.15061998     0.14540
H889        H  0.68379899  0.47959696  0.25884681     0.14570
C890        C  0.62802386  0.45583641  0.22650560    -0.24390
H891        H  0.77218014  0.42769264  0.16108593     0.04780
H892        H  0.78406310  0.43276191  0.20494295     0.08010
H893        H  0.78170157  0.46948705  0.17642087     0.08010
H894        H  0.61629801  0.43006157  0.22913854     0.07990
H895        H  0.61338376  0.47122317  0.20762996     0.07990
H896        H  0.62606773  0.46889066  0.25167500     0.04770
C897        C  0.67043716  0.44393806  0.79237294    -0.21040
C898        C  0.68052391  0.43535571  0.82588803    -0.07600
C899        C  0.71573652  0.43678532  0.83418706     0.13270
C900        C  0.73823955  0.45264850  0.81127426    -0.21090
C901        C  0.72672892  0.46711232  0.78056569    -0.07610
C902        C  0.69343873  0.45908045  0.76932587     0.13260
C903        C  0.68217484  0.46635839  0.73320838    -0.24440
H904        H  0.64409848  0.44030664  0.78461372     0.14540
H905        H  0.76423917  0.45676023  0.81927047     0.14570
C906        C  0.72989873  0.42400086  0.86774590    -0.24390
H907        H  0.65532906  0.45820759  0.72880472     0.04780
H908        H  0.69864547  0.45193002  0.71519200     0.08010
H909        H  0.68395691  0.49387207  0.72710768     0.08010
H910        H  0.72316319  0.39655881  0.87125932     0.07990
H911        H  0.71969938  0.43948243  0.88923959     0.07990
H912        H  0.75819475  0.42602315  0.86871357     0.04770
C913        C  0.71106357  0.55544375  0.83923114    -0.21040
C914        C  0.68014513  0.56622443  0.82449449    -0.07600
C915        C  0.67704799  0.56479479  0.78843106     0.13270
C916        C  0.70268287  0.54809185  0.76920959    -0.21090
C917        C  0.73007642  0.53109198  0.78528231    -0.07610
C918        C  0.73549398  0.53740086  0.82054594     0.13260
C919        C  0.76561700  0.52414627  0.84033559    -0.24440
H920        H  0.71527120  0.55854885  0.86646975     0.14540
H921        H  0.69948539  0.54561915  0.74189988     0.14570
C922        C  0.64634698  0.57905218  0.77015398    -0.24390
H923        H  0.75664837  0.50740472  0.86152078     0.04780
H924        H  0.78317477  0.50920624  0.82444005     0.08010
H925        H  0.78010156  0.54600021  0.85133637     0.08010
H926        H  0.64358291  0.60672509  0.77617445     0.07990
H927        H  0.62297983  0.56501109  0.77812746     0.07990
H928        H  0.64874003  0.57646565  0.74195748     0.04770
C929        C  0.69769966  0.54509505  0.23122222    -0.21040
C930        C  0.72875018  0.53341739  0.21763316    -0.07600
C931        C  0.73815420  0.54431763  0.18444434     0.13270
C932        C  0.71400048  0.56067038  0.16371816    -0.21090
C933        C  0.68070165  0.56673150  0.17548452    -0.07610
C934        C  0.67335824  0.56140033  0.21060875     0.13260
C935        C  0.63962387  0.57124792  0.22648480    -0.24440
H936        H  0.69049586  0.53762627  0.25682396     0.14540
H937        H  0.72066918  0.56645545  0.13741591     0.14570
C938        C  0.77287925  0.53808202  0.16951190    -0.24390
H939        H  0.64013090  0.56847613  0.25476905     0.04780
H940        H  0.61887697  0.55440394  0.21690363     0.08010
H941        H  0.63377295  0.59845222  0.22056006     0.08010
H942        H  0.77068612  0.52145678  0.14656735     0.07990
H943        H  0.79023631  0.52612182  0.18813851     0.07990
H944        H  0.78444594  0.56291707  0.16180320     0.04770
C945        C  0.44710907  0.28788172  0.84206901    -0.21040
C946        C  0.43666185  0.31906124  0.82784240    -0.07600
C947        C  0.43846166  0.32333154  0.79186375     0.13270
C948        C  0.45429135  0.29788440  0.77187179    -0.21090
C949        C  0.47001862  0.26944519  0.78726355    -0.07610
C950        C  0.46385531  0.26325351  0.82240668     0.13260
C951        C  0.47591769  0.23169177  0.84062568    -0.24440
H952        H  0.44464625  0.28360570  0.86937717     0.14540
H953        H  0.45802607  0.30225254  0.74474335     0.14570
C954        C  0.42450734  0.35471735  0.77443640    -0.24390
H955        H  0.45393065  0.21902557  0.85342732     0.04780
H956        H  0.49525010  0.23870813  0.86020894     0.08010
H957        H  0.48690022  0.21297352  0.82282660     0.08010
H958        H  0.43930158  0.37779502  0.78192541     0.07990
H959        H  0.39727040  0.35786975  0.78159142     0.07990
H960        H  0.42598417  0.35256501  0.74613986     0.04770
C961        C  0.53267079  0.31042401  0.76818705    -0.21040
C962        C  0.53297689  0.27607434  0.77923460    -0.07600
C963        C  0.55525543  0.26721851  0.80632650     0.13270
C964        C  0.56998317  0.29337475  0.82616626    -0.21090
C965        C  0.56397480  0.32804713  0.81888326    -0.07610
C966        C  0.54688420  0.33670770  0.78822512     0.13260
C967        C  0.54049673  0.37344916  0.77817563    -0.24440
H968        H  0.51740085  0.31721728  0.74610779     0.14540
H969        H  0.58497496  0.28672312  0.84851721     0.14570
C970        C  0.56459707  0.23073837  0.81412447    -0.24390
H971        H  0.52557153  0.37535434  0.75408392     0.04780
H972        H  0.56520350  0.38685039  0.77410040     0.08010
H973        H  0.52576462  0.38661281  0.79858739     0.08010
H974        H  0.57508618  0.21846653  0.79081774     0.07990
H975        H  0.54246634  0.21631038  0.82366430     0.07990
H976        H  0.58457091  0.22918056  0.83424304     0.04770
C977        C  0.30575091  0.45601043  0.76368498    -0.21040
C978        C  0.27446748  0.46653852  0.77790224    -0.07600
C979        C  0.26686282  0.45521564  0.81158518     0.13270
C980        C  0.29253039  0.44060822  0.83165539    -0.21090
C981        C  0.32601157  0.43715595  0.81962654    -0.07610
C982        C  0.33241705  0.44346353  0.78450029     0.13260
C983        C  0.36755104  0.43987757  0.76928333    -0.24440
H984        H  0.31081483  0.46134298  0.73705553     0.14540
H985        H  0.28664289  0.43325125  0.85775172     0.14570
C986        C  0.23181758  0.45741084  0.82702144    -0.24390
H987        H  0.36796849  0.44692425  0.74175048     0.04780
H988        H  0.37613843  0.41297456  0.77145852     0.08010
H989        H  0.38573275  0.45702404  0.78284637     0.08010
H990        H  0.21503641  0.43891807  0.81371510     0.07990
H991        H  0.22148304  0.48358212  0.82569547     0.07990
H992        H  0.23166004  0.44994835  0.85445272     0.04770
C993        C  0.26241270  0.54223971  0.81205897    -0.21040
C994        C  0.27605513  0.53069513  0.78094940    -0.07600
C995        C  0.31000565  0.54037171  0.77262789     0.13270
C996        C  0.32958116  0.55840619  0.79638806    -0.21090
C997        C  0.31820916  0.56391445  0.82998780    -0.07610
C998        C  0.28338191  0.55642122  0.83774901     0.13260
C999        C  0.26720823  0.55960096  0.87270141    -0.24440
H1000       H  0.23603678  0.53658534  0.81798710     0.14540
H1001       H  0.35554467  0.56518269  0.78936493     0.14570
C1002       C  0.32799203  0.53024280  0.74015701    -0.24390
H1003       H  0.25765075  0.53403082  0.88089099     0.04780
H1004       H  0.24517844  0.57739967  0.87120302     0.08010
H1005       H  0.28404414  0.56884889  0.89319410     0.08010
H1006       H  0.33668733  0.55354435  0.72631738     0.07990
H1007       H  0.31155783  0.51530225  0.72292868     0.07990
H1008       H  0.35076380  0.51449816  0.74637369     0.04770
C1009       C  0.23478287  0.46520717  0.68953764    -0.21040
C1010       C  0.22118053  0.47125098  0.72229329    -0.07600
C1011       C  0.18945094  0.45577670  0.73080968     0.13270
C1012       C  0.17147632  0.43746326  0.70599387    -0.21090
C1013       C  0.18230959  0.43675170  0.67189405    -0.07610
C1014       C  0.21515321  0.44950585  0.66371211     0.13260
C1015       C  0.22837879  0.44960476  0.62751467    -0.24440
H1016       H  0.25931597  0.47611114  0.68301009     0.14540
H1017       H  0.14672550  0.42679060  0.71264773     0.14570
C1018       C  0.17165410  0.46026001  0.76449364    -0.24390
H1019       H  0.25413436  0.46147212  0.62572576     0.04780
H1020       H  0.21088178  0.46455572  0.61086010     0.08010
H1021       H  0.23027397  0.42291388  0.61791306     0.08010
H1022       H  0.18602817  0.47695702  0.78188170     0.07990
H1023       H  0.16781302  0.43486825  0.77675633     0.07990
H1024       H  0.14621957  0.47213759  0.76034740     0.04770
C1025       C  0.18326074  0.53917115  0.74030815    -0.21040
C1026       C  0.21740220  0.53488693  0.73001469    -0.07600
C1027       C  0.22808095  0.55265575  0.70019302     0.13270
C1028       C  0.20371883  0.56774071  0.67865027    -0.21090
C1029       C  0.16872821  0.56509738  0.68551277    -0.07610
C1030       C  0.15835815  0.55181064  0.71762324     0.13260
C1031       C  0.12124403  0.54758374  0.72701042    -0.24440
H1032       H  0.17517966  0.52893892  0.76460827     0.14540
H1033       H  0.21197559  0.57976547  0.65503929     0.14570
C1034       C  0.26488483  0.55600900  0.69039452    -0.24390
H1035       H  0.10819460  0.53126523  0.70771873     0.04780
H1036       H  0.10874048  0.57293498  0.72827541     0.08010
H1037       H  0.11800356  0.53512082  0.75236074     0.08010
H1038       H  0.27557279  0.53071243  0.68405544     0.07990
H1039       H  0.27883633  0.56855314  0.71160770     0.07990
H1040       H  0.26840361  0.57238894  0.66740534     0.04770
C1041       C  0.79809870  0.72998494  0.45495623    -0.21040
C1042       C  0.76916636  0.71443641  0.46957595    -0.07600
C1043       C  0.76268852  0.67946299  0.46246182     0.13270
C1044       C  0.78710900  0.66014368  0.44503713    -0.21090
C1045       C  0.81877638  0.67424274  0.43602908    -0.07610
C1046       C  0.82368720  0.71011681  0.43930014     0.13260
C1047       C  0.85614441  0.72748524  0.42774597    -0.24440
H1048       H  0.80276804  0.75694499  0.45975377     0.14540
H1049       H  0.78256533  0.63293304  0.44163817     0.14570
C1050       C  0.73145201  0.66079288  0.47490125    -0.24390
H1051       H  0.85426628  0.75581038  0.42981488     0.04780
H1052       H  0.86138030  0.72101922  0.40058765     0.08010
H1053       H  0.87793219  0.71935516  0.44395800     0.08010
H1054       H  0.71729089  0.65016584  0.45268481     0.07990
H1055       H  0.71393447  0.67761131  0.48915177     0.07990
H1056       H  0.73917333  0.63931508  0.49183568     0.04770
C1057       C  0.80771039  0.73218129  0.53453562    -0.21040
C1058       C  0.77371820  0.72058531  0.53276644    -0.07600
C1059       C  0.76400669  0.69234039  0.55318878     0.13270
C1060       C  0.78946005  0.67276982  0.56923576    -0.21090
C1061       C  0.82424556  0.68134382  0.56607398    -0.07610
C1062       C  0.83324054  0.71275760  0.55041721     0.13260
C1063       C  0.86984662  0.72445392  0.54717347    -0.24440
H1064       H  0.81506927  0.75459582  0.51993597     0.14540
H1065       H  0.78220530  0.64958816  0.58274281     0.14570
C1066       C  0.72738153  0.68184275  0.55816343    -0.24390
H1067       H  0.87196755  0.74924696  0.53335120     0.04780
H1068       H  0.88485478  0.70519725  0.53266011     0.08010
H1069       H  0.88109902  0.72808078  0.57297480     0.08010
H1070       H  0.70948988  0.69878687  0.54435537     0.07990
H1071       H  0.72095574  0.68316933  0.58579568     0.07990
H1072       H  0.72351548  0.65509133  0.54936377     0.04770
C1073       C  0.46765950  0.23444575  0.69090909    -0.21040
C1074       C  0.46870122  0.22332736  0.72517293    -0.07600
C1075       C  0.44704025  0.19582648  0.73471068     0.13270
C1076       C  0.43158551  0.17586253  0.70905263    -0.21090
C1077       C  0.43636661  0.18326421  0.67424044    -0.07610
C1078       C  0.45284608  0.21422218  0.66511155     0.13260
C1079       C  0.45797699  0.22448146  0.62826832    -0.24440
H1080       H  0.48220163  0.25692366  0.68365228     0.14540
H1081       H  0.41710510  0.15324224  0.71616034     0.14570
C1082       C  0.43936474  0.18743588  0.77141986    -0.24390
H1083       H  0.47252932  0.24883744  0.62594391     0.04780
H1084       H  0.43283548  0.22823552  0.61571524     0.08010
H1085       H  0.47257326  0.20430525  0.61458700     0.08010
H1086       H  0.42902007  0.21039516  0.78446776     0.07990
H1087       H  0.46226263  0.17811669  0.78464281     0.07990
H1088       H  0.41980599  0.16689081  0.77362214     0.04770
C1089       C  0.67429443  0.20810327  0.56039504    -0.21040
C1090       C  0.68381083  0.17390239  0.56629160    -0.07600
C1091       C  0.71841668  0.16448350  0.56057553     0.13270
C1092       C  0.74110426  0.18844250  0.54626865    -0.21090
C1093       C  0.72940478  0.22001922  0.53415819    -0.07610
C1094       C  0.69640714  0.23106972  0.54394461     0.13260
C1095       C  0.68283026  0.26611342  0.53533341    -0.24440
H1096       H  0.64848402  0.21635950  0.56613195     0.14540
H1097       H  0.76707238  0.18086788  0.54074736     0.14570
C1098       C  0.73146810  0.12884437  0.56702004    -0.24390
H1099       H  0.65937589  0.26361406  0.51953997     0.04780
H1100       H  0.70148085  0.28187599  0.52094943     0.08010
H1101       H  0.67632292  0.27987047  0.55932564     0.08010
H1102       H  0.71696814  0.10999225  0.55142519     0.07990
H1103       H  0.72892221  0.12312720  0.59458908     0.07990
H1104       H  0.75888194  0.12614066  0.56019222     0.04770
C1105       C  0.55876279  0.16448020  0.71155733    -0.21040
C1106       C  0.56694686  0.17845753  0.67947880    -0.07600
C1107       C  0.56269863  0.21420193  0.67455319     0.13270
C1108       C  0.54638899  0.23362845  0.70025855    -0.21090
C1109       C  0.53238328  0.21770890  0.72940845    -0.07610
C1110       C  0.54094220  0.18320162  0.73602134     0.13260
C1111       C  0.52985284  0.16429644  0.76757796    -0.24440
H1112       H  0.56370187  0.13763868  0.71676876     0.14540
H1113       H  0.54085088  0.26042726  0.69564918     0.14570
C1114       C  0.57287292  0.23163885  0.64171594    -0.24390
H1115       H  0.55248954  0.15297314  0.78040438     0.04780
H1116       H  0.51180694  0.14345135  0.76057004     0.08010
H1117       H  0.51755596  0.18139720  0.78607609     0.08010
H1118       H  0.55782674  0.22103882  0.62008348     0.07990
H1119       H  0.60057225  0.22777564  0.63697284     0.07990
H1120       H  0.56805986  0.25966628  0.64269551     0.04770
C1121       C  0.70357092  0.82092628  0.56487409    -0.21040
C1122       C  0.66808379  0.81661912  0.56139125    -0.07600
C1123       C  0.65549324  0.78646102  0.54547248     0.13270
C1124       C  0.67873743  0.76247746  0.53278642    -0.21090
C1125       C  0.71384316  0.76936356  0.53146352    -0.07610
C1126       C  0.72666093  0.79764672  0.55012298     0.13260
C1127       C  0.76439461  0.80353293  0.55464738    -0.24440
H1128       H  0.71326982  0.84335279  0.57807045     0.14540
H1129       H  0.66881437  0.74044579  0.51933664     0.14570
C1130       C  0.61833921  0.77983258  0.53716428    -0.24390
H1131       H  0.76971166  0.82797993  0.56820213     0.04780
H1132       H  0.77776180  0.80441375  0.52974703     0.08010
H1133       H  0.77514687  0.78255557  0.57042142     0.08010
H1134       H  0.60117215  0.80164959  0.54173274     0.07990
H1135       H  0.61580601  0.77393389  0.50945602     0.07990
H1136       H  0.60908724  0.75743883  0.55206146     0.04770
C1137       C  0.69848520  0.23302039  0.45864984    -0.21040
C1138       C  0.72879819  0.21807155  0.47059889    -0.07600
C1139       C  0.73609920  0.18375436  0.46109863     0.13270
C1140       C  0.71175208  0.16460870  0.44346189    -0.21090
C1141       C  0.67914943  0.17765564  0.43707319    -0.07610
C1142       C  0.67290881  0.21296943  0.44310459     0.13260
C1143       C  0.63928507  0.22956322  0.43435957    -0.24440
H1144       H  0.69324449  0.25953203  0.46479063     0.14540
H1145       H  0.71728133  0.13794589  0.43799021     0.14570
C1146       C  0.76812790  0.16512346  0.47116967    -0.24390
H1147       H  0.64007824  0.25772741  0.43842986     0.04780
H1148       H  0.61860692  0.21927132  0.45086278     0.08010
H1149       H  0.63319738  0.22483095  0.40704426     0.08010
H1150       H  0.78552163  0.18124784  0.48614235     0.07990
H1151       H  0.78184803  0.15651771  0.44784319     0.07990
H1152       H  0.76152373  0.14231973  0.48687119     0.04770
C1153       C  0.67149028  0.78980753  0.43393560    -0.21040
C1154       C  0.67898879  0.82486539  0.43759770    -0.07600
C1155       C  0.71109352  0.83419149  0.45202362     0.13270
C1156       C  0.73207499  0.80865221  0.46594319    -0.21090
C1157       C  0.72119694  0.77451798  0.46820973    -0.07610
C1158       C  0.69223974  0.76453311  0.44896909     0.13260
C1159       C  0.68272757  0.72751624  0.44442728    -0.24440
H1160       H  0.64818192  0.78210476  0.42111251     0.14540
H1161       H  0.75526920  0.81613938  0.47891824     0.14570
C1162       C  0.72307780  0.87086887  0.45510845    -0.24390
H1163       H  0.65996683  0.72446465  0.42773717     0.04780
H1164       H  0.67655736  0.71558642  0.46924510     0.08010
H1165       H  0.70419305  0.71378072  0.43205040     0.08010
H1166       H  0.70649664  0.88513084  0.47320455     0.07990
H1167       H  0.72287051  0.88329734  0.42959957     0.07990
H1168       H  0.74956147  0.87263154  0.46517447     0.04770
C1169       C  0.45914420  0.80783594  0.26774910    -0.21040
C1170       C  0.46907707  0.77619977  0.28179022    -0.07600
C1171       C  0.45603611  0.76693362  0.31419827     0.13270
C1172       C  0.43896635  0.79143003  0.33382898    -0.21090
C1173       C  0.43464361  0.82519450  0.32211125    -0.07610
C1174       C  0.44236479  0.83268982  0.28752643     0.13260
C1175       C  0.43564871  0.86733370  0.27185730    -0.24440
H1176       H  0.46817846  0.81492330  0.24263844     0.14540
H1177       H  0.43113582  0.78458587  0.35956649     0.14570
C1178       C  0.46105119  0.73217839  0.32982905    -0.24390
H1179       H  0.44269195  0.86804317  0.24433425     0.04780
H1180       H  0.45102169  0.88724436  0.28508928     0.08010
H1181       H  0.40802939  0.87351381  0.27381281     0.08010
H1182       H  0.47636173  0.73447117  0.35364097     0.07990
H1183       H  0.43580401  0.72085369  0.33623517     0.07990
H1184       H  0.47388392  0.71447716  0.31218691     0.04770
C1185       C  0.44290303  0.70810843  0.17450806    -0.21040
C1186       C  0.43560247  0.67419682  0.18423100    -0.07600
C1187       C  0.43920733  0.66510253  0.21919970     0.13270
C1188       C  0.45435701  0.68857694  0.24189044    -0.21090
C1189       C  0.46737508  0.72007821  0.23041581    -0.07610
C1190       C  0.45811201  0.73128836  0.19729265     0.13260
C1191       C  0.46374141  0.76767065  0.18574160    -0.24440
H1192       H  0.43781344  0.71628869  0.14850333     0.14540
H1193       H  0.45911558  0.68062252  0.26784856     0.14570
C1194       C  0.42960496  0.63016266  0.23266728    -0.24390
H1195       H  0.45867452  0.77080498  0.15795434     0.04780
H1196       H  0.49009661  0.77642628  0.19071639     0.08010
H1197       H  0.44557148  0.78445766  0.19948067     0.08010
H1198       H  0.44537087  0.61018719  0.22007704     0.07990
H1199       H  0.40207011  0.62519924  0.22792910     0.07990
H1200       H  0.43398549  0.62800994  0.26066329     0.04770
C1201       C  0.53748539  0.81171473  0.26634251    -0.21040
C1202       C  0.53321546  0.77805080  0.27855534    -0.07600
C1203       C  0.55183557  0.76828875  0.30798192     0.13270
C1204       C  0.56789612  0.79355978  0.32787664    -0.21090
C1205       C  0.56595342  0.82839064  0.31914570    -0.07610
C1206       C  0.55223158  0.83740213  0.28685528     0.13260
C1207       C  0.54997846  0.87413718  0.27511937    -0.24440
H1208       H  0.52550958  0.81887790  0.24245161     0.14540
H1209       H  0.58026062  0.78626275  0.35159525     0.14570
C1210       C  0.55493023  0.73158530  0.31891593    -0.24390
H1211       H  0.53750721  0.87635819  0.24969155     0.04780
H1212       H  0.57600190  0.88527697  0.27296089     0.08010
H1213       H  0.53458300  0.88924667  0.29360365     0.08010
H1214       H  0.56660674  0.71652939  0.29794172     0.07990
H1215       H  0.52974576  0.72114014  0.32580349     0.07990
H1216       H  0.57161204  0.72873777  0.34172198     0.04770
C1217       C  0.54642002  0.73136358  0.20320954    -0.21040
C1218       C  0.53121421  0.71622919  0.23205756    -0.07600
C1219       C  0.53833472  0.68128446  0.23904049     0.13270
C1220       C  0.55557085  0.66158029  0.21477424    -0.21090
C1221       C  0.56502003  0.67533481  0.18307901    -0.07610
C1222       C  0.56234855  0.71120688  0.17799248     0.13260
C1223       C  0.57517710  0.72834171  0.14586300    -0.24440
H1224       H  0.54296823  0.75846852  0.19869668     0.14540
H1225       H  0.55885549  0.63441766  0.21963168     0.14570
C1226       C  0.52685274  0.66309096  0.27095312    -0.24390
H1227       H  0.57348032  0.75669868  0.14765310     0.04780
H1228       H  0.55959347  0.72038264  0.12353244     0.08010
H1229       H  0.60235430  0.72149457  0.14150998     0.08010
H1230       H  0.54944217  0.65259894  0.28454784     0.07990
H1231       H  0.51341969  0.68022211  0.28872360     0.07990
H1232       H  0.50955186  0.64155049  0.26416696     0.04770
C1233       C  0.28879609  0.83505534  0.44034633    -0.21040
C1234       C  0.32213395  0.82221110  0.43636234    -0.07600
C1235       C  0.32788760  0.78708726  0.44353696     0.13270
C1236       C  0.30160076  0.76763973  0.45891222    -0.21090
C1237       C  0.27056468  0.78285691  0.46895406    -0.07610
C1238       C  0.26315593  0.81595840  0.45650420     0.13260
C1239       C  0.22889211  0.83249680  0.46084792    -0.24440
H1240       H  0.28307023  0.86117189  0.43280532     0.14540
H1241       H  0.30697879  0.74170413  0.46717556     0.14570
C1242       C  0.36208415  0.77048931  0.43761569    -0.24390
H1243       H  0.23138976  0.85605571  0.47653330     0.04780
H1244       H  0.21043442  0.81499337  0.47286857     0.08010
H1245       H  0.21856340  0.83960395  0.43536720     0.08010
H1246       H  0.38184324  0.78312080  0.45364134     0.07990
H1247       H  0.36913791  0.77255772  0.41016870     0.07990
H1248       H  0.36172150  0.74285956  0.44446233     0.04770
C1249       C  0.30606331  0.77087197  0.53828760    -0.21040
C1250       C  0.27296274  0.78321208  0.53285212    -0.07600
C1251       C  0.26308302  0.81403304  0.54911679     0.13270
C1252       C  0.28778766  0.83406625  0.56558159    -0.21090
C1253       C  0.32236786  0.82478282  0.56506486    -0.07610
C1254       C  0.33125405  0.79150387  0.55319326     0.13260
C1255       C  0.36724455  0.77780078  0.55405152    -0.24440
H1256       H  0.31347443  0.74682588  0.52674051     0.14540
H1257       H  0.28024073  0.85859885  0.57613459     0.14570
C1258       C  0.22732027  0.82774902  0.54820839    -0.24390
H1259       H  0.36837571  0.75036700  0.54654183     0.04780
H1260       H  0.37744034  0.77990196  0.58037469     0.08010
H1261       H  0.38369612  0.79209397  0.53581494     0.08010
H1262       H  0.21025115  0.81158983  0.53289847     0.07990
H1263       H  0.21704128  0.82903776  0.57465722     0.07990
H1264       H  0.22723116  0.85392309  0.53710829     0.04770
C1265       C  0.22728018  0.70791438  0.45210125    -0.21040
C1266       C  0.21184162  0.73321680  0.47243276    -0.07600
C1267       C  0.17602844  0.73804607  0.46962696     0.13270
C1268       C  0.15651091  0.71451200  0.45121167    -0.21090
C1269       C  0.17143596  0.68553604  0.43653246    -0.07610
C1270       C  0.20742219  0.68307826  0.43518598     0.13260
C1271       C  0.22490212  0.65404324  0.41684865    -0.24440
H1272       H  0.25477710  0.70556962  0.45199256     0.14540
H1273       H  0.12892902  0.71723849  0.45115080     0.14570
C1274       C  0.15678681  0.76648015  0.48692300    -0.24390
H1275       H  0.25308933  0.65736925  0.41660902     0.04780
H1276       H  0.21592467  0.65287975  0.38992613     0.08010
H1277       H  0.21930102  0.62937884  0.42981549     0.08010
H1278       H  0.17355729  0.78399248  0.50099215     0.07990
H1279       H  0.13792768  0.75554918  0.50517364     0.07990
H1280       H  0.14296078  0.78179623  0.46739987     0.04770
C1281       C  0.19357701  0.73744508  0.55433130    -0.21040
C1282       C  0.22206290  0.72654550  0.53557133    -0.07600
C1283       C  0.23345464  0.69242549  0.54025662     0.13270
C1284       C  0.21185382  0.66850109  0.55631934    -0.21090
C1285       C  0.17980324  0.67837559  0.56888563    -0.07610
C1286       C  0.17194067  0.71377754  0.57055017     0.13260
C1287       C  0.14026914  0.72687831  0.58823397    -0.24440
H1288       H  0.18600721  0.76393645  0.55348030     0.14540
H1289       H  0.21911667  0.64172522  0.55706670     0.14570
C1290       C  0.26839198  0.68118886  0.52878038    -0.24390
H1291       H  0.14030307  0.75528609  0.59005578     0.04780
H1292       H  0.13894791  0.71644122  0.61463763     0.08010
H1293       H  0.11702040  0.71948739  0.57380310     0.08010
H1294       H  0.28797515  0.69578344  0.54316865     0.07990
H1295       H  0.27221203  0.68544049  0.50119329     0.07990
H1296       H  0.27271303  0.65353914  0.53394720     0.04770
C1297       C  0.45180670  0.73292048  0.80337096    -0.21040
C1298       C  0.46823049  0.72034831  0.77400526    -0.07600
C1299       C  0.46230753  0.68583521  0.76461830     0.13270
C1300       C  0.44626379  0.66350395  0.78777011    -0.21090
C1301       C  0.43518137  0.67509029  0.81984870    -0.07610
C1302       C  0.43563440  0.71075610  0.82661421     0.13260
C1303       C  0.42044721  0.72567415  0.85881204    -0.24440
H1304       H  0.45530092  0.75931549  0.81062994     0.14540
H1305       H  0.44451119  0.63649026  0.78153588     0.14570
C1306       C  0.47365329  0.67152817  0.73087376    -0.24390
H1307       H  0.42010975  0.75412810  0.85803092     0.04780
H1308       H  0.43572164  0.71816015  0.88148344     0.08010
H1309       H  0.39367953  0.71668767  0.86184752     0.08010
H1310       H  0.49386592  0.65202361  0.73497424     0.07990
H1311       H  0.48314880  0.69185074  0.71363365     0.07990
H1312       H  0.45158068  0.65924401  0.71787902     0.04770
C1313       C  0.46207181  0.76502007  0.69022970    -0.21040
C1314       C  0.46814030  0.77771937  0.72331078    -0.07600
C1315       C  0.45278580  0.80906295  0.73281953     0.13270
C1316       C  0.43662439  0.82902897  0.70787432    -0.21090
C1317       C  0.43646961  0.81920091  0.67331232    -0.07610
C1318       C  0.44757587  0.78577507  0.66471477     0.13260
C1319       C  0.44727788  0.77276110  0.62846365    -0.24440
H1320       H  0.47302789  0.74069389  0.68295485     0.14540
H1321       H  0.42660425  0.85389185  0.71511707     0.14570
C1322       C  0.45465756  0.82341339  0.76843742    -0.24390
H1323       H  0.45784486  0.74643425  0.62649991     0.04780
H1324       H  0.46302020  0.78970613  0.61191483     0.08010
H1325       H  0.42065262  0.77192403  0.61899750     0.08010
H1326       H  0.42846656  0.82546162  0.77914489     0.07990
H1327       H  0.47000206  0.80733464  0.78574756     0.07990
H1328       H  0.46619080  0.84940463  0.76775524     0.04770
C1329       C  0.53055839  0.73662269  0.81748391    -0.21040
C1330       C  0.53122151  0.72849138  0.78248777    -0.07600
C1331       C  0.55370775  0.70247194  0.77125426     0.13270
C1332       C  0.56935709  0.68116863  0.79555406    -0.21090
C1333       C  0.56421611  0.68616514  0.83069281    -0.07610
C1334       C  0.54608744  0.71544903  0.84185798     0.13260
C1335       C  0.53988030  0.72278633  0.87924282    -0.24440
H1336       H  0.51434383  0.75730594  0.82617968     0.14540
H1337       H  0.58477711  0.65973380  0.78708224     0.14570
C1338       C  0.56222288  0.69734529  0.73411975    -0.24390
H1339       H  0.52400275  0.74604916  0.88300607     0.04780
H1340       H  0.56458907  0.72715462  0.89247329     0.08010
H1341       H  0.52617468  0.70091561  0.89124833     0.08010
H1342       H  0.57652606  0.71999631  0.72473978     0.07990
H1343       H  0.53908471  0.69363585  0.71857551     0.07990
H1344       H  0.57883808  0.67464296  0.73016921     0.04770
C1345       C  0.54117689  0.76976935  0.69386756    -0.21040
C1346       C  0.53159007  0.78116961  0.72647636    -0.07600
C1347       C  0.54387981  0.81330486  0.73776969     0.13270
C1348       C  0.55939719  0.83564290  0.71417115    -0.21090
C1349       C  0.56365338  0.82613117  0.67975139    -0.07610
C1350       C  0.55710143  0.79159000  0.67034777     0.13260
C1351       C  0.56525870  0.77747179  0.63531330    -0.24440
H1352       H  0.53274466  0.74477283  0.68531966     0.14540
H1353       H  0.56627560  0.86127940  0.72234884     0.14570
C1354       C  0.54064676  0.82488633  0.77425084    -0.24390
H1355       H  0.56205102  0.74919054  0.63436523     0.04780
H1356       H  0.59222134  0.78328973  0.62860777     0.08010
H1357       H  0.54776923  0.78836930  0.61583262     0.08010
H1358       H  0.56650383  0.82997609  0.78477791     0.07990
H1359       H  0.52851466  0.80520164  0.79058883     0.07990
H1360       H  0.52563221  0.84891676  0.77555702     0.04770
C1361       C  0.32300983  0.07203822  0.29454482    -0.21040
C1362       C  0.31797469  0.06515082  0.32941872    -0.07600
C1363       C  0.28870962  0.04660462  0.33970860     0.13270
C1364       C  0.26740293  0.03243680  0.31460947    -0.21090
C1365       C  0.27596190  0.03413784  0.27969972    -0.07610
C1366       C  0.30155723  0.05764829  0.26952559     0.13260
C1367       C  0.30535573  0.06919747  0.23301057    -0.24440
H1368       H  0.34429712  0.08810329  0.28686144     0.14540
H1369       H  0.24622391  0.01641520  0.32250751     0.14570
C1370       C  0.28169954  0.03851803  0.37679367    -0.24390
H1371       H  0.32782896  0.08628837  0.22964365     0.04780
H1372       H  0.28237957  0.08406158  0.22566374     0.08010
H1373       H  0.30825148  0.04741516  0.21533418     0.08010
H1374       H  0.27748183  0.06259936  0.39126724     0.07990
H1375       H  0.30366777  0.02438529  0.38792547     0.07990
H1376       H  0.25858305  0.02225827  0.37993223     0.04770
C1377       C  0.33745662  0.94661422  0.29107127    -0.21040
C1378       C  0.32333584  0.93699654  0.32265542    -0.07600
C1379       C  0.28736792  0.93874393  0.32654301     0.13270
C1380       C  0.26769353  0.95468973  0.30077024    -0.21090
C1381       C  0.28330534  0.97052351  0.27236961    -0.07610
C1382       C  0.31821064  0.96347560  0.26616366     0.13260
C1383       C  0.33610799  0.97400377  0.23382787    -0.24440
H1384       H  0.36450135  0.94286006  0.28648549     0.14540
H1385       H  0.24066759  0.95875189  0.30505105     0.14570
C1386       C  0.26969526  0.92599968  0.35832066    -0.24390
H1387       H  0.36377806  0.96775362  0.23442175     0.04780
H1388       H  0.33425941  0.00180498  0.22994522     0.08010
H1389       H  0.32513655  0.95965839  0.21208528     0.08010
H1390       H  0.27833206  0.94097442  0.38086211     0.07990
H1391       H  0.27546056  0.89840762  0.36219347     0.07990
H1392       H  0.24151839  0.92875061  0.35646456     0.04770
C1393       C  0.29255679  0.32501642  0.07048242    -0.21040
C1394       C  0.32736478  0.31895969  0.06418872    -0.07600
C1395       C  0.33705153  0.28915284  0.04615832     0.13270
C1396       C  0.31161934  0.26890371  0.03109885    -0.21090
C1397       C  0.27701158  0.27838290  0.03248714    -0.07610
C1398       C  0.26718405  0.30413432  0.05582519     0.13260
C1399       C  0.23056844  0.30872041  0.06659092    -0.24440
H1400       H  0.28522789  0.34665736  0.08621885     0.14540
H1401       H  0.31910860  0.24779317  0.01477990     0.14570
C1402       C  0.37399538  0.28036174  0.03965107    -0.24390
H1403       H  0.22760771  0.33067882  0.08440568     0.04780
H1404       H  0.22189999  0.28532126  0.08021237     0.08010
H1405       H  0.21359893  0.31311569  0.04459327     0.08010
H1406       H  0.38725525  0.27575929  0.06432483     0.07990
H1407       H  0.38670861  0.30166773  0.02570276     0.07990
H1408       H  0.37665720  0.25682641  0.02390478     0.04770
C1409       C  0.29724960  0.27262146  0.95255442    -0.21040
C1410       C  0.26949628  0.28770121  0.96964952    -0.07600
C1411       C  0.26336242  0.32309569  0.96479504     0.13270
C1412       C  0.28734089  0.34314656  0.94748698    -0.21090
C1413       C  0.31797686  0.32910240  0.93558882    -0.07610
C1414       C  0.32224280  0.29302115  0.93641767     0.13260
C1415       C  0.35346722  0.27594871  0.92166990    -0.24440
H1416       H  0.30165746  0.24537577  0.95561594     0.14540
H1417       H  0.28327797  0.37059516  0.94605647     0.14570
C1418       C  0.23298493  0.34124860  0.97957234    -0.24390
H1419       H  0.35116503  0.24757639  0.92230288     0.04780
H1420       H  0.37649079  0.28289601  0.93670021     0.08010
H1421       H  0.35692640  0.28390933  0.89460907     0.08010
H1422       H  0.24144043  0.35967461  0.99950440     0.07990
H1423       H  0.21454973  0.32321127  0.99078179     0.07990
H1424       H  0.21945337  0.35540125  0.95899460     0.04770
C1425       C  0.26445998  0.46246180  0.18873482    -0.21040
C1426       C  0.27640965  0.47012179  0.22180650    -0.07600
C1427       C  0.30786138  0.45574359  0.23233753     0.13270
C1428       C  0.32845957  0.43893451  0.20834540    -0.21090
C1429       C  0.31888488  0.43659128  0.17383158    -0.07610
C1430       C  0.28547782  0.44663521  0.16433092     0.13260
C1431       C  0.27273395  0.44390348  0.12801640    -0.24440
H1432       H  0.24034006  0.47285636  0.18035454     0.14540
H1433       H  0.35340735  0.42982357  0.21623632     0.14570
C1434       C  0.32158139  0.45906908  0.26804302    -0.24390
H1435       H  0.24622649  0.45365341  0.12532129     0.04780
H1436       H  0.27272217  0.41666872  0.11980991     0.08010
H1437       H  0.28926671  0.45931161  0.11075316     0.08010
H1438       H  0.30466504  0.47414934  0.28462925     0.07990
H1439       H  0.32442060  0.43318259  0.27949040     0.07990
H1440       H  0.34702649  0.47163666  0.26745694     0.04770
C1441       C  0.17100017  0.44015760  0.29224267    -0.21040
C1442       C  0.18119064  0.43683833  0.32652073    -0.07600
C1443       C  0.21531767  0.44501791  0.33534287     0.13270
C1444       C  0.23643625  0.46054582  0.31078165    -0.21090
C1445       C  0.22409756  0.46938017  0.27815178    -0.07610
C1446       C  0.19198155  0.45622066  0.26800070     0.13260
C1447       C  0.17821700  0.45997542  0.23235581    -0.24440
H1448       H  0.14552786  0.43219847  0.28470990     0.14540
H1449       H  0.26103509  0.46995172  0.31892768     0.14570
C1450       C  0.22896150  0.44057557  0.37116149    -0.24390
H1451       H  0.17363742  0.43417622  0.22128161     0.04780
H1452       H  0.19607994  0.47365281  0.21541345     0.08010
H1453       H  0.15362437  0.47404469  0.23294702     0.08010
H1454       H  0.22762819  0.41315621  0.37866567     0.07990
H1455       H  0.21391293  0.45638131  0.38932820     0.07990
H1456       H  0.25607398  0.44876068  0.37326435     0.04770
C1457       C  0.26438144  0.54196990  0.18915912    -0.21040
C1458       C  0.27626410  0.53415230  0.22222677    -0.07600
C1459       C  0.30787532  0.54829345  0.23270004     0.13270
C1460       C  0.32894810  0.56428374  0.20849482    -0.21090
C1461       C  0.31933275  0.56660045  0.17397343    -0.07610
C1462       C  0.28557904  0.55751653  0.16469625     0.13260
C1463       C  0.27253340  0.56097752  0.12854985    -0.24440
H1464       H  0.24020279  0.53174139  0.18070417     0.14540
H1465       H  0.35411049  0.57295440  0.21629527     0.14570
C1466       C  0.32106579  0.54572846  0.26865906    -0.24390
H1467       H  0.24563749  0.55219010  0.12610609     0.04780
H1468       H  0.28825017  0.54515202  0.11097956     0.08010
H1469       H  0.27345687  0.58827022  0.12053740     0.08010
H1470       H  0.30320904  0.53207390  0.28557808     0.07990
H1471       H  0.32485610  0.57188688  0.27917942     0.07990
H1472       H  0.34597295  0.53221300  0.26888101     0.04770
C1473       C  0.23616921  0.53992598  0.31282914    -0.21040
C1474       C  0.22456080  0.53337020  0.27940189    -0.07600
C1475       C  0.19347020  0.54853787  0.26885936     0.13270
C1476       C  0.17276711  0.56492872  0.29306674    -0.21090
C1477       C  0.18202305  0.56627383  0.32770104    -0.07610
C1478       C  0.21512457  0.55545863  0.33734599     0.13260
C1479       C  0.22740426  0.55695514  0.37388794    -0.24440
H1480       H  0.25992936  0.52880279  0.32131481     0.14540
H1481       H  0.14802429  0.57459615  0.28518842     0.14570
C1482       C  0.18028457  0.54658850  0.23286292    -0.24390
H1483       H  0.25360165  0.54644028  0.37673242     0.04780
H1484       H  0.21020197  0.54162813  0.39055598     0.08010
H1485       H  0.22803945  0.58396120  0.38269929     0.08010
H1486       H  0.19723367  0.53175511  0.21610585     0.07990
H1487       H  0.17808424  0.57287280  0.22220285     0.07990
H1488       H  0.15462175  0.53447302  0.23261671     0.04770
C1489       C  0.29500576  0.17768817  0.43358302    -0.21040
C1490       C  0.32995227  0.18445137  0.43740693    -0.07600
C1491       C  0.34034275  0.21556623  0.45278875     0.13270
C1492       C  0.31548929  0.23716824  0.46700229    -0.21090
C1493       C  0.28088406  0.22745199  0.46824791    -0.07610
C1494       C  0.27029972  0.19923838  0.44811834     0.13260
C1495       C  0.23328839  0.19192215  0.44103829    -0.24440
H1496       H  0.28704385  0.15478392  0.42004621     0.14540
H1497       H  0.32375855  0.25954262  0.48108552     0.14570
C1498       C  0.37753134  0.22457295  0.45754742    -0.24390
H1499       H  0.22984260  0.16773260  0.42646516     0.04780
H1500       H  0.22276522  0.21288910  0.42511486     0.08010
H1501       H  0.21850169  0.18962284  0.46488440     0.08010
H1502       H  0.39009184  0.22744717  0.43224966     0.07990
H1503       H  0.39048585  0.20416107  0.47250487     0.07990
H1504       H  0.38085388  0.24908132  0.47161798     0.04770
C1505       C  0.19184944  0.26524104  0.45726502    -0.21040
C1506       C  0.22327159  0.27805831  0.46908150    -0.07600
C1507       C  0.23321891  0.31132501  0.45896905     0.13270
C1508       C  0.20943714  0.33267670  0.44279851    -0.21090
C1509       C  0.17604210  0.32135914  0.43559446    -0.07610
C1510       C  0.16805589  0.28631526  0.44064851     0.13260
C1511       C  0.13378488  0.27129418  0.43133993    -0.24440
H1512       H  0.18412617  0.23965165  0.46455497     0.14540
H1513       H  0.21665005  0.35896185  0.43731613     0.14570
C1514       C  0.26819712  0.32551773  0.46600126    -0.24390
H1515       H  0.13247798  0.24340687  0.43692360     0.04780
H1516       H  0.12906329  0.27467443  0.40352639     0.08010
H1517       H  0.11329360  0.28394604  0.44633605     0.08010
H1518       H  0.28556298  0.30576788  0.47631491     0.07990
H1519       H  0.26637326  0.34724050  0.48425764     0.07990
H1520       H  0.27966098  0.33489619  0.44174824     0.04770
C1521       C  0.30582813  0.23269796  0.54506243    -0.21040
C1522       C  0.27495541  0.22028760  0.53165239    -0.07600
C1523       C  0.26481113  0.18655052  0.54008236     0.13270
C1524       C  0.28824291  0.16440803  0.55581187    -0.21090
C1525       C  0.32128690  0.17558855  0.56430156    -0.07610
C1526       C  0.32904528  0.21097865  0.56151986     0.13260
C1527       C  0.36212376  0.22611917  0.57444779    -0.24440
H1528       H  0.31385794  0.25850993  0.53905691     0.14540
H1529       H  0.28123032  0.13777007  0.55949954     0.14570
C1530       C  0.22999365  0.17277953  0.53165837    -0.24390
H1531       H  0.36174583  0.25457461  0.57359280     0.04780
H1532       H  0.38387758  0.21767910  0.55836909     0.08010
H1533       H  0.36629846  0.21836135  0.60146506     0.08010
H1534       H  0.21789588  0.16259520  0.55527062     0.07990
H1535       H  0.21297339  0.19297412  0.52159369     0.07990
H1536       H  0.23221247  0.15170980  0.51270503     0.04770
C1537       C  0.18495512  0.26329758  0.53557942    -0.21040
C1538       C  0.21945057  0.27300698  0.53286356    -0.07600
C1539       C  0.23051611  0.30214818  0.55137809     0.13270
C1540       C  0.20617893  0.32434524  0.56555432    -0.21090
C1541       C  0.17114065  0.31742183  0.56296194    -0.07610
C1542       C  0.16043334  0.28556213  0.54935155     0.13260
C1543       C  0.12318234  0.27622312  0.54593806    -0.24440
H1544       H  0.17637498  0.24026787  0.52281741     0.14540
H1545       H  0.21449606  0.34781580  0.57786495     0.14570
C1546       C  0.26769102  0.30976086  0.55722555    -0.24390
H1547       H  0.11960936  0.25106396  0.53313040     0.04780
H1548       H  0.10978210  0.29584555  0.53033844     0.08010
H1549       H  0.11126157  0.27448571  0.57163190     0.08010
H1550       H  0.28207519  0.31028335  0.53301903     0.07990
H1551       H  0.27838424  0.28989909  0.57440031     0.07990
H1552       H  0.27150667  0.33488574  0.57003134     0.04770
C1553       C  0.44944098  0.34089126  0.21250665    -0.21040
C1554       C  0.43428134  0.32791444  0.18278772    -0.07600
C1555       C  0.43153404  0.29196323  0.17857507     0.13270
C1556       C  0.44812189  0.27021132  0.20196629    -0.21090
C1557       C  0.46893199  0.28380692  0.22783895    -0.07610
C1558       C  0.46709507  0.31937224  0.23489460     0.13260
C1559       C  0.48540617  0.33589986  0.26449698    -0.24440
H1560       H  0.45046718  0.36835704  0.21665493     0.14540
H1561       H  0.44793962  0.24281618  0.19767248     0.14570
C1562       C  0.41220522  0.27643867  0.14903353    -0.24390
H1563       H  0.46662065  0.34946497  0.28088523     0.04780
H1564       H  0.50435958  0.35476862  0.25479580     0.08010
H1565       H  0.49888802  0.31705390  0.28069254     0.08010
H1566       H  0.42512852  0.28240303  0.12449441     0.07990
H1567       H  0.38573413  0.28661176  0.14853035     0.07990
H1568       H  0.41071277  0.24809004  0.15120592     0.04770
C1569       C  0.46450145  0.18853260  0.26422863    -0.21040
C1570       C  0.46853434  0.22262525  0.27491880    -0.07600
C1571       C  0.45055604  0.23364548  0.30429808     0.13270
C1572       C  0.43506770  0.20908889  0.32556260    -0.21090
C1573       C  0.43634827  0.17400680  0.31766869    -0.07610
C1574       C  0.44945280  0.16381338  0.28552436     0.13260
C1575       C  0.45069329  0.12674017  0.27470746    -0.24440
H1576       H  0.47628099  0.18039844  0.24066175     0.14540
H1577       H  0.42331338  0.21715254  0.34934003     0.14570
C1578       C  0.44728061  0.27093649  0.31340505    -0.24390
H1579       H  0.46291593  0.12355765  0.24925966     0.04780
H1580       H  0.42437604  0.11624541  0.27295571     0.08010
H1581       H  0.46578102  0.11167069  0.29347983     0.08010
H1582       H  0.43473662  0.28481744  0.29209298     0.07990
H1583       H  0.47238975  0.28247532  0.31872462     0.07990
H1584       H  0.43131388  0.27464798  0.33659888     0.04770
C1585       C  0.55074712  0.28963664  0.16136679    -0.21040
C1586       C  0.56587118  0.31955725  0.17405761    -0.07600
C1587       C  0.56865416  0.32403617  0.20991247     0.13270
C1588       C  0.55212276  0.30071141  0.23184431    -0.21090
C1589       C  0.53129010  0.27466584  0.21852209    -0.07610
C1590       C  0.53312316  0.26732192  0.18307321     0.13260
C1591       C  0.51488362  0.23744153  0.16688074    -0.24440
H1592       H  0.54971679  0.28526767  0.13398474     0.14540
H1593       H  0.55233267  0.30521418  0.25915888     0.14570
C1594       C  0.58787298  0.35384638  0.22515734    -0.24390
H1595       H  0.49591670  0.24690575  0.14799181     0.04780
H1596       H  0.53371261  0.22098111  0.15346023     0.08010
H1597       H  0.50142688  0.22133344  0.18586524     0.08010
H1598       H  0.57472427  0.37827141  0.21920280     0.07990
H1599       H  0.61429148  0.35455077  0.21481716     0.07990
H1600       H  0.58951676  0.35180661  0.25345389     0.04770
C1601       C  0.56564964  0.17825808  0.29420147    -0.21040
C1602       C  0.56373521  0.18615609  0.32921791    -0.07600
C1603       C  0.55047920  0.21836327  0.33916334     0.13270
C1604       C  0.53599738  0.23966559  0.31420867    -0.21090
C1605       C  0.53208800  0.22865388  0.28028269    -0.07610
C1606       C  0.55021082  0.19927713  0.26951129     0.13260
C1607       C  0.55348266  0.18979368  0.23237318    -0.24440
H1608       H  0.57762223  0.15452041  0.28628476     0.14540
H1609       H  0.52431696  0.26338145  0.32205551     0.14570
C1610       C  0.54834868  0.22926779  0.37610984    -0.24390
H1611       H  0.56945067  0.16655812  0.22885133     0.04780
H1612       H  0.56600987  0.21102818  0.21826325     0.08010
H1613       H  0.52833291  0.18429256  0.22102521     0.08010
H1614       H  0.57436312  0.23103841  0.38716719     0.07990
H1615       H  0.53281785  0.21052636  0.39084334     0.07990
H1616       H  0.53614107  0.25478158  0.37897946     0.04770
C1617       C  0.06787010  0.20734255  0.17844389    -0.21040
C1618       C  0.06270749  0.17212209  0.18376984    -0.07600
C1619       C  0.04557094  0.16112459  0.21365387     0.13270
C1620       C  0.03104273  0.18566667  0.23532255    -0.21090
C1621       C  0.03148522  0.22074739  0.22705927    -0.07610
C1622       C  0.05320545  0.23184074  0.20034453     0.13260
C1623       C  0.06193014  0.26904782  0.19533253    -0.24440
H1624       H  0.08261790  0.21569828  0.15648264     0.14540
H1625       H  0.01567189  0.17702129  0.25667530     0.14570
C1626       C  0.03930264  0.12369668  0.22114485    -0.24390
H1627       H  0.07862037  0.27298347  0.17268016     0.04780
H1628       H  0.07606762  0.27843793  0.21806102     0.08010
H1629       H  0.03885553  0.28470865  0.19172629     0.08010
H1630       H  0.02396962  0.11998846  0.24477929     0.07990
H1631       H  0.02501668  0.11176715  0.19965769     0.07990
H1632       H  0.06401513  0.11029787  0.22481827     0.04770
C1633       C  0.23876480  0.04530136  0.18669195    -0.21040
C1634       C  0.22802577  0.03502429  0.21936603    -0.07600
C1635       C  0.19598859  0.04653110  0.23122269     0.13270
C1636       C  0.17309136  0.06156194  0.20793143    -0.21090
C1637       C  0.18206131  0.06650940  0.17337276    -0.07610
C1638       C  0.21630130  0.06048907  0.16333767     0.13260
C1639       C  0.22904122  0.06720398  0.12750573    -0.24440
H1640       H  0.26401985  0.03862465  0.17807281     0.14540
H1641       H  0.14760851  0.06821688  0.21646958     0.14570
C1642       C  0.18601111  0.04321991  0.26828811    -0.24390
H1643       H  0.25649153  0.06065227  0.12457478     0.04780
H1644       H  0.22621197  0.09480373  0.12120890     0.08010
H1645       H  0.21454901  0.05131813  0.10892357     0.08010
H1646       H  0.20412428  0.05821701  0.28419025     0.07990
H1647       H  0.18651893  0.01628123  0.27682421     0.07990
H1648       H  0.15993082  0.05333244  0.27303286     0.04770
C1649       C  0.20584140  0.17806636  0.06264806    -0.21040
C1650       C  0.17058346  0.18484099  0.06371579    -0.07600
C1651       C  0.15868717  0.21728271  0.05266609     0.13270
C1652       C  0.18171303  0.24019322  0.03753072    -0.21090
C1653       C  0.21591838  0.23136662  0.03197052    -0.07610
C1654       C  0.22883163  0.20140951  0.04765278     0.13260
C1655       C  0.26659576  0.19424442  0.04930798    -0.24440
H1656       H  0.21530657  0.15402843  0.07278748     0.14540
H1657       H  0.17217717  0.26391266  0.02709203     0.14570
C1658       C  0.12142167  0.22706767  0.05370285    -0.24390
H1659       H  0.27190034  0.16882331  0.06093463     0.04780
H1660       H  0.27903199  0.21391085  0.06557642     0.08010
H1661       H  0.27854469  0.19482081  0.02372655     0.08010
H1662       H  0.11228677  0.22751913  0.08058308     0.07990
H1663       H  0.10613239  0.20850882  0.03852164     0.07990
H1664       H  0.11691042  0.25293638  0.04273852     0.04770
C1665       C  0.16814022  0.21459805  0.93644197    -0.21040
C1666       C  0.17683158  0.17968779  0.93756405    -0.07600
C1667       C  0.21001210  0.17064788  0.94936312     0.13270
C1668       C  0.23136437  0.19607314  0.96288080    -0.21090
C1669       C  0.21961201  0.22946716  0.96819984    -0.07610
C1670       C  0.18910087  0.23959660  0.95171475     0.13260
C1671       C  0.17843728  0.27649362  0.94997293    -0.24440
H1672       H  0.14383037  0.22221966  0.92564284     0.14540
H1673       H  0.25584050  0.18877198  0.97322074     0.14570
C1674       C  0.22297964  0.13429604  0.94987541    -0.24390
H1675       H  0.15472586  0.27980803  0.93473703     0.04780
H1676       H  0.19885952  0.29164342  0.93733817     0.08010
H1677       H  0.17331477  0.28669851  0.97575203     0.08010
H1678       H  0.22074549  0.12324209  0.92397296     0.07990
H1679       H  0.20827674  0.11875091  0.96859033     0.07990
H1680       H  0.25026646  0.13281393  0.95753660     0.04770
C1681       C  0.94542051  0.21474621  0.16412000    -0.21040
C1682       C  0.93527970  0.18232177  0.17583439    -0.07600
C1683       C  0.93661738  0.17530651  0.21138938     0.13270
C1684       C  0.95299978  0.19869227  0.23314211    -0.21090
C1685       C  0.96842415  0.22846789  0.22022645    -0.07610
C1686       C  0.96159788  0.23805021  0.18604027     0.13260
C1687       C  0.97260383  0.27191814  0.17147735    -0.24440
H1688       H  0.94300187  0.22111546  0.13722844     0.14540
H1689       H  0.95784199  0.19125742  0.25928599     0.14570
C1690       C  0.92229822  0.14274280  0.22657442    -0.24390
H1691       H  0.95022744  0.28496805  0.15990244     0.04780
H1692       H  0.99226217  0.26784837  0.15140245     0.08010
H1693       H  0.98279395  0.28914859  0.19143445     0.08010
H1694       H  0.93780855  0.12033472  0.21873004     0.07990
H1695       H  0.89540434  0.13922170  0.21821926     0.07990
H1696       H  0.92252629  0.14349427  0.25498443     0.04770
C1697       C  0.19923733  0.95798205  0.23370468    -0.21040
C1698       C  0.22906273  0.97103188  0.21847270    -0.07600
C1699       C  0.23641777  0.96146511  0.18438973     0.13270
C1700       C  0.21168504  0.94415337  0.16519015    -0.21090
C1701       C  0.17901154  0.93722504  0.17850549    -0.07610
C1702       C  0.17355040  0.94215905  0.21400726     0.13260
C1703       C  0.14034058  0.93287842  0.23108030    -0.24440
H1704       H  0.19441320  0.96322789  0.26039007     0.14540
H1705       H  0.21720775  0.93860259  0.13857848     0.14570
C1706       C  0.26917762  0.97080704  0.16661787    -0.24390
H1707       H  0.14078112  0.93854815  0.25892320     0.04780
H1708       H  0.13569292  0.90503209  0.22800764     0.08010
H1709       H  0.11904140  0.94774131  0.21965362     0.08010
H1710       H  0.28612092  0.98627105  0.18304621     0.07990
H1711       H  0.28291653  0.94710202  0.15912382     0.07990
H1712       H  0.26353637  0.98592200  0.14320756     0.04770
C1713       C  0.03056656  0.81285249  0.76733613    -0.21040
C1714       C  0.03212408  0.77804104  0.77657194    -0.07600
C1715       C  0.05517931  0.76833495  0.80265503     0.13270
C1716       C  0.06930398  0.79374791  0.82379910    -0.21090
C1717       C  0.06273222  0.82858375  0.81795893    -0.07610
C1718       C  0.04498152  0.83836775  0.78805106     0.13260
C1719       C  0.03797302  0.87542760  0.77965801    -0.24440
H1720       H  0.01410619  0.82051520  0.74647223     0.14540
H1721       H  0.08484250  0.78639360  0.84554703     0.14570
C1722       C  0.06627235  0.73179220  0.80753275    -0.24390
H1723       H  0.02247332  0.87816205  0.75601599     0.04780
H1724       H  0.06242569  0.88926094  0.77551536     0.08010
H1725       H  0.02360296  0.88759692  0.80092302     0.08010
H1726       H  0.08080378  0.72352219  0.78464726     0.07990
H1727       H  0.04441990  0.71445784  0.81135677     0.07990
H1728       H  0.08344431  0.72897174  0.82997296     0.04770
C1729       C  0.95219400  0.79800502  0.77247033    -0.21040
C1730       C  0.96957382  0.77021911  0.78732253    -0.07600
C1731       C  0.96544014  0.76423969  0.82280083     0.13270
C1732       C  0.94848797  0.78837674  0.84299448    -0.21090
C1733       C  0.93616640  0.81895024  0.82895266    -0.07610
C1734       C  0.93646797  0.82312475  0.79294678     0.13260
C1735       C  0.92152245  0.85441902  0.77602426    -0.24440
H1736       H  0.95477702  0.80242236  0.74521758     0.14540
H1737       H  0.94747484  0.78445377  0.87044757     0.14570
C1738       C  0.98026958  0.73372227  0.84075670    -0.24390
H1739       H  0.92192288  0.85219156  0.74769722     0.04780
H1740       H  0.93652180  0.87756678  0.78287318     0.08010
H1741       H  0.89456588  0.85775312  0.78420390     0.08010
H1742       H  0.95985539  0.72024129  0.85523503     0.07990
H1743       H  0.99102365  0.71520152  0.82260135     0.07990
H1744       H  0.00051900  0.74210696  0.85881745     0.04770
C1745       C  0.04396818  0.69136771  0.73456962    -0.21040
C1746       C  0.02965240  0.72242486  0.72397045    -0.07600
C1747       C  0.03693600  0.73437699  0.69052880     0.13270
C1748       C  0.05312238  0.71244958  0.66710827    -0.21090
C1749       C  0.06249531  0.67905714  0.67656262    -0.07610
C1750       C  0.06044365  0.66958491  0.71149855     0.13260
C1751       C  0.07468585  0.63628805  0.72480877    -0.24440
H1752       H  0.03977000  0.68254072  0.76035930     0.14540
H1753       H  0.05612681  0.72068031  0.64078436     0.14570
C1754       C  0.02664673  0.76941747  0.67834043    -0.24390
H1755       H  0.07427280  0.63524921  0.75321003     0.04780
H1756       H  0.10166614  0.63363433  0.71647365     0.08010
H1757       H  0.05928742  0.61429640  0.71554765     0.08010
H1758       H  0.01396350  0.78448046  0.69864701     0.07990
H1759       H  0.04973506  0.78377321  0.67006653     0.07990
H1760       H  0.00896080  0.76706705  0.65625142     0.04770
C1761       C  0.95343253  0.73276874  0.69972984    -0.21040
C1762       C  0.96621483  0.71924607  0.73037550    -0.07600
C1763       C  0.95668980  0.68550740  0.73949549     0.13270
C1764       C  0.94162878  0.66410272  0.71490066    -0.21090
C1765       C  0.93522776  0.67585109  0.68156214    -0.07610
C1766       C  0.93875999  0.71145235  0.67475124     0.13260
C1767       C  0.92842871  0.72725012  0.64108583    -0.24440
H1768       H  0.95845695  0.75935317  0.69367000     0.14540
H1769       H  0.93675924  0.63751420  0.72127766     0.14570
C1770       C  0.96202304  0.67193194  0.77505376    -0.24390
H1771       H  0.93023558  0.75565827  0.64176678     0.04780
H1772       H  0.90154023  0.72036355  0.63517071     0.08010
H1773       H  0.94554253  0.71838210  0.62028390     0.08010
H1774       H  0.94704086  0.68772340  0.79322503     0.07990
H1775       H  0.98927078  0.67239906  0.78216692     0.07990
H1776       H  0.95298566  0.64505140  0.77760286     0.04770
C1777       C  0.79547011  0.04834603  0.77349694    -0.21040
C1778       C  0.76879011  0.02986979  0.78911476    -0.07600
C1779       C  0.76364685  0.03389209  0.82466623     0.13270
C1780       C  0.78771096  0.05171541  0.84423741    -0.21090
C1781       C  0.81730407  0.06559530  0.82943505    -0.07610
C1782       C  0.82034591  0.06548591  0.79327134     0.13260
C1783       C  0.85012893  0.08223070  0.77538915    -0.24440
H1784       H  0.79910246  0.04598941  0.74611416     0.14540
H1785       H  0.78439310  0.05247688  0.87176692     0.14570
C1786       C  0.73391593  0.01815633  0.84318873    -0.24390
H1787       H  0.84696205  0.08180840  0.74715143     0.04780
H1788       H  0.87414335  0.06843767  0.78139399     0.08010
H1789       H  0.85232720  0.10939839  0.78356582     0.08010
H1790       H  0.74308545  0.99784935  0.86084411     0.07990
H1791       H  0.71512419  0.00723454  0.82529285     0.07990
H1792       H  0.72048370  0.03818174  0.85819046     0.04770
C1793       C  0.81181369  0.97030422  0.76809358    -0.21040
C1794       C  0.77730832  0.96723783  0.77789468    -0.07600
C1795       C  0.76891964  0.94244308  0.80304099     0.13270
C1796       C  0.79509963  0.92794568  0.82276126    -0.21090
C1797       C  0.82929543  0.93681953  0.81729285    -0.07610
C1798       C  0.83805635  0.95653662  0.78830400     0.13260
C1799       C  0.87458569  0.96619948  0.78066767    -0.24440
H1800       H  0.81845437  0.98748934  0.74736177     0.14540
H1801       H  0.78872815  0.91112585  0.84392352     0.14570
C1802       C  0.73299572  0.93069007  0.80950179    -0.24390
H1803       H  0.87657498  0.98296461  0.75777573     0.04780
H1804       H  0.88982093  0.94275674  0.77571383     0.08010
H1805       H  0.88565773  0.98033706  0.80271792     0.08010
H1806       H  0.72156025  0.92137074  0.78530624     0.07990
H1807       H  0.71772022  0.95136261  0.82079111     0.07990
H1808       H  0.73212685  0.90901661  0.82792009     0.04770
C1809       C  0.66809550  0.06440108  0.71590516    -0.21040
C1810       C  0.67685768  0.06264402  0.68102460    -0.07600
C1811       C  0.71020295  0.05094368  0.67236468     0.13270
C1812       C  0.73135447  0.03767241  0.69803784    -0.21090
C1813       C  0.71912381  0.03233878  0.73126260    -0.07610
C1814       C  0.68910277  0.04974578  0.74122171     0.13260
C1815       C  0.68010135  0.05488110  0.77824665    -0.24440
H1816       H  0.64400964  0.07580425  0.72337224     0.14540
H1817       H  0.75579994  0.02675902  0.69102630     0.14570
C1818       C  0.72348352  0.04996959  0.63618233    -0.24390
H1819       H  0.65756751  0.07188041  0.78119868     0.04780
H1820       H  0.70187496  0.06719141  0.79167342     0.08010
H1821       H  0.67373365  0.03054523  0.79081563     0.08010
H1822       H  0.72158054  0.07576322  0.62475107     0.07990
H1823       H  0.70872951  0.03116018  0.62081804     0.07990
H1824       H  0.75072420  0.04212052  0.63498001     0.04770
C1825       C  0.66626619  0.93875473  0.71018741    -0.21040
C1826       C  0.67983396  0.93476908  0.67720552    -0.07600
C1827       C  0.71460867  0.94319507  0.67171709     0.13270
C1828       C  0.73341551  0.95859150  0.69850056    -0.21090
C1829       C  0.71745365  0.96825502  0.72937909    -0.07610
C1830       C  0.68392806  0.95631934  0.73569421     0.13260
C1831       C  0.66473760  0.96347797  0.76815227    -0.24440
H1832       H  0.64017659  0.93089468  0.71538413     0.14540
H1833       H  0.75938329  0.96697032  0.69374866     0.14570
C1834       C  0.73118802  0.93881772  0.63724204    -0.24390
H1835       H  0.64226937  0.97990044  0.76258621     0.04780
H1836       H  0.68082968  0.97629109  0.78722636     0.08010
H1837       H  0.65579483  0.93898798  0.77957576     0.08010
H1838       H  0.71759212  0.95455789  0.61788784     0.07990
H1839       H  0.73039662  0.91141970  0.62962745     0.07990
H1840       H  0.75834310  0.94712312  0.63752676     0.04770
C1841       C  0.79435899  0.82681526  0.06666262    -0.21040
C1842       C  0.82928033  0.81873768  0.06529660    -0.07600
C1843       C  0.83912964  0.78632311  0.05246019     0.13270
C1844       C  0.81427674  0.76512642  0.03749165    -0.21090
C1845       C  0.78044403  0.77619253  0.03319778    -0.07610
C1846       C  0.76973951  0.80579355  0.05107668     0.13260
C1847       C  0.73273483  0.81554462  0.05408178    -0.24440
H1848       H  0.78646275  0.85068996  0.07838843     0.14540
H1849       H  0.82211313  0.74127232  0.02607848     0.14570
C1850       C  0.87592499  0.77497190  0.05157539    -0.24390
H1851       H  0.72926032  0.83866983  0.07026408     0.04780
H1852       H  0.71836007  0.79434072  0.06633606     0.08010
H1853       H  0.72175555  0.82145230  0.02885679     0.08010
H1854       H  0.88620890  0.77358462  0.07800645     0.07990
H1855       H  0.89131158  0.79325776  0.03613574     0.07990
H1856       H  0.87878154  0.74920898  0.03985541     0.04770
C1857       C  0.76346411  0.81516959  0.96473111    -0.21040
C1858       C  0.77461242  0.78131896  0.96944515    -0.07600
C1859       C  0.80399939  0.77038940  0.95146751     0.13270
C1860       C  0.82486232  0.79493677  0.93547530    -0.21090
C1861       C  0.81669813  0.82995877  0.93634934    -0.07610
C1862       C  0.78440963  0.83991889  0.94916353     0.13260
C1863       C  0.77299491  0.87679912  0.94939604    -0.24440
H1864       H  0.73975150  0.82314627  0.97624518     0.14540
H1865       H  0.84865343  0.78693740  0.92376726     0.14570
C1866       C  0.81360881  0.73321140  0.94871054    -0.24390
H1867       H  0.74735605  0.87980128  0.96119358     0.04780
H1868       H  0.77147733  0.88660327  0.92277304     0.08010
H1869       H  0.79126241  0.89257455  0.96441417     0.08010
H1870       H  0.79237454  0.71876630  0.93667217     0.07990
H1871       H  0.81952777  0.72230853  0.97397503     0.07990
H1872       H  0.83658954  0.72955571  0.93244933     0.04770
C1873       C  0.73230513  0.70196016  0.05289422    -0.21040
C1874       C  0.71921969  0.72899429  0.03322949    -0.07600
C1875       C  0.68395723  0.73679413  0.03591564     0.13270
C1876       C  0.66218680  0.71437568  0.05334670    -0.21090
C1877       C  0.67444294  0.68364893  0.06707683    -0.07610
C1878       C  0.71022955  0.67833734  0.06884442     0.13260
C1879       C  0.72529508  0.64740104  0.08632814    -0.24440
H1880       H  0.75948875  0.69698937  0.05248101     0.14540
H1881       H  0.63493963  0.71936104  0.05308035     0.14570
C1882       C  0.66784951  0.76721305  0.01859778    -0.24390
H1883       H  0.75361450  0.64890069  0.08746545     0.04780
H1884       H  0.71867985  0.62369867  0.07213696     0.08010
H1885       H  0.71552029  0.64562346  0.11293937     0.08010
H1886       H  0.65529067  0.78362456  0.03807807     0.07990
H1887       H  0.68668944  0.78311905  0.00475586     0.07990
H1888       H  0.64827630  0.75835697  0.00001286     0.04770
C1889       C  0.70053084  0.73344319  0.95102681    -0.21040
C1890       C  0.72744298  0.72017992  0.97063037    -0.07600
C1891       C  0.73490875  0.68473570  0.96814880     0.13270
C1892       C  0.71228765  0.66299795  0.95098714    -0.21090
C1893       C  0.68175027  0.67550264  0.93722719    -0.07610
C1894       C  0.67674706  0.71143301  0.93529676     0.13260
C1895       C  0.64597794  0.72673801  0.91787725    -0.24440
H1896       H  0.69582577  0.76075787  0.95128758     0.14540
H1897       H  0.71703699  0.63562645  0.95138538     0.14570
C1898       C  0.76524851  0.66845752  0.98531991    -0.24390
H1899       H  0.64770823  0.75512806  0.91658542     0.04780
H1900       H  0.62236517  0.72036826  0.93223468     0.08010
H1901       H  0.64400493  0.71682720  0.89132709     0.08010
H1902       H  0.78134248  0.65558876  0.96579085     0.07990
H1903       H  0.78138091  0.68733867  0.99884979     0.07990
H1904       H  0.75642436  0.64902594  0.00413887     0.04770
C1905       C  0.17501934  0.79310376  0.06732259    -0.21040
C1906       C  0.18276030  0.82813212  0.06471365    -0.07600
C1907       C  0.21439621  0.83800991  0.05013980     0.13270
C1908       C  0.23521656  0.81289643  0.03518707    -0.21090
C1909       C  0.22444613  0.77865346  0.03243016    -0.07610
C1910       C  0.19553950  0.76820217  0.05156777     0.13260
C1911       C  0.18576719  0.73117964  0.05545041    -0.24440
H1912       H  0.15168127  0.78530954  0.08010095     0.14540
H1913       H  0.25823539  0.82084340  0.02223237     0.14570
C1914       C  0.22511817  0.87505170  0.04721384    -0.24390
H1915       H  0.16327086  0.72792444  0.07247894     0.04780
H1916       H  0.20726935  0.71699891  0.06722460     0.08010
H1917       H  0.17891149  0.71992258  0.03053273     0.08010
H1918       H  0.22765607  0.88646189  0.07309908     0.07990
H1919       H  0.20593440  0.88954104  0.03209679     0.07990
H1920       H  0.25014847  0.87788696  0.03411054     0.04770
C1921       C  0.18356486  0.76327298  0.96591712    -0.21040
C1922       C  0.21803200  0.77254075  0.96911104    -0.07600
C1923       C  0.23008702  0.80126725  0.95066844     0.13270
C1924       C  0.20633883  0.82341246  0.93518981    -0.21090
C1925       C  0.17105292  0.81661253  0.93649257    -0.07610
C1926       C  0.15975642  0.78504102  0.95038908     0.13260
C1927       C  0.12246390  0.77530904  0.95200554    -0.24440
H1928       H  0.17456829  0.74037767  0.97851019     0.14540
H1929       H  0.21525676  0.84672089  0.92299796     0.14570
C1930       C  0.26771498  0.80850530  0.94693610    -0.24390
H1931       H  0.11848606  0.75021912  0.96485835     0.04780
H1932       H  0.11190602  0.77317061  0.92573816     0.08010
H1933       H  0.10805817  0.79486890  0.96673362     0.08010
H1934       H  0.27958968  0.78778569  0.93162492     0.07990
H1935       H  0.28065762  0.80983162  0.97201844     0.07990
H1936       H  0.27241828  0.83305260  0.93331714     0.04770
C1937       C  0.30313460  0.73588286  0.04779454    -0.21040
C1938       C  0.27453445  0.72040790  0.03232604    -0.07600
C1939       C  0.26815848  0.68536250  0.03890312     0.13270
C1940       C  0.29236650  0.66599163  0.05636154    -0.21090
C1941       C  0.32402158  0.67989039  0.06602902    -0.07610
C1942       C  0.32862875  0.71587792  0.06371896     0.13260
C1943       C  0.36101347  0.73308790  0.07547900    -0.24440
H1944       H  0.30773891  0.76291947  0.04338633     0.14540
H1945       H  0.28738994  0.63884599  0.05975996     0.14570
C1946       C  0.23741855  0.66655185  0.02554274    -0.24390
H1947       H  0.35990497  0.76131174  0.07195004     0.04780
H1948       H  0.38305403  0.72342346  0.06045457     0.08010
H1949       H  0.36512706  0.72790638  0.10310933     0.08010
H1950       H  0.24546788  0.64707398  0.00647612     0.07990
H1951       H  0.21897710  0.68397292  0.01358858     0.07990
H1952       H  0.22408855  0.65351769  0.04701094     0.04770
C1953       C  0.29446688  0.67768930  0.93306886    -0.21040
C1954       C  0.32949815  0.68373886  0.93824277    -0.07600
C1955       C  0.33985115  0.71429656  0.95466492     0.13270
C1956       C  0.31494323  0.73563530  0.96901716    -0.21090
C1957       C  0.28019021  0.72645117  0.96892210    -0.07610
C1958       C  0.26961267  0.69952841  0.94719713     0.13260
C1959       C  0.23276595  0.69481012  0.93723595    -0.24440
H1960       H  0.28655744  0.65542383  0.91848826     0.14540
H1961       H  0.32301320  0.75756255  0.98396010     0.14570
C1962       C  0.37700195  0.72295457  0.96027683    -0.24390
H1963       H  0.22922494  0.67202234  0.92058507     0.04780
H1964       H  0.22421204  0.71759318  0.92259309     0.08010
H1965       H  0.21604485  0.69170733  0.95964926     0.08010
H1966       H  0.38998203  0.72641607  0.93526777     0.07990
H1967       H  0.38960809  0.70209974  0.97491174     0.07990
H1968       H  0.38022122  0.74707976  0.97501381     0.04770
C1969       C  0.82753074  0.20947551  0.06490955    -0.21040
C1970       C  0.81823860  0.17472415  0.06649649    -0.07600
C1971       C  0.78527120  0.16495897  0.05517888     0.13270
C1972       C  0.76449632  0.18937525  0.03899220    -0.21090
C1973       C  0.77604664  0.22289436  0.03270764    -0.07610
C1974       C  0.80701790  0.23360501  0.04808152     0.13260
C1975       C  0.82043719  0.26962931  0.04540306    -0.24440
H1976       H  0.85219100  0.21749989  0.07472035     0.14540
H1977       H  0.74048812  0.18116257  0.02816226     0.14570
C1978       C  0.77278667  0.12842365  0.05715962    -0.24390
H1979       H  0.82285219  0.28080816  0.07140512     0.04780
H1980       H  0.84601096  0.26949990  0.03309014     0.08010
H1981       H  0.80355820  0.28626898  0.03018871     0.08010
H1982       H  0.77194580  0.11995493  0.08426751     0.07990
H1983       H  0.78999639  0.11145191  0.04225908     0.07990
H1984       H  0.74664782  0.12553723  0.04647128     0.04770
C1985       C  0.81348328  0.23858157  0.96457603    -0.21040
C1986       C  0.77960730  0.22783124  0.96918083    -0.07600
C1987       C  0.76875463  0.19743006  0.95288724     0.13270
C1988       C  0.79327922  0.17555813  0.93834943    -0.21090
C1989       C  0.82828458  0.18389863  0.93886565    -0.07610
C1990       C  0.83816531  0.21686498  0.95042434     0.13260
C1991       C  0.87484861  0.22858915  0.95084310    -0.24440
H1992       H  0.82174741  0.26237956  0.97593538     0.14540
H1993       H  0.78519081  0.15119991  0.92774547     0.14570
C1994       C  0.73151567  0.18800194  0.95070000    -0.24390
H1995       H  0.87771136  0.25468391  0.96183628     0.04780
H1996       H  0.88461014  0.22953481  0.92429703     0.08010
H1997       H  0.89051939  0.21089335  0.96659096     0.08010
H1998       H  0.71822324  0.20707567  0.93446390     0.07990
H1999       H  0.71937621  0.18753729  0.97621486     0.07990
H2000       H  0.72778140  0.16243634  0.93877659     0.04770
C2001       C  0.73683782  0.31515984  0.03981199    -0.21040
C2002       C  0.72597747  0.28140145  0.03370776    -0.07600
C2003       C  0.69543058  0.27003891  0.04922221     0.13270
C2004       C  0.67356140  0.29417837  0.06439612    -0.21090
C2005       C  0.68220843  0.32918664  0.06560341    -0.07610
C2006       C  0.71537360  0.33934068  0.05525446     0.13260
C2007       C  0.72747194  0.37601337  0.05737034    -0.24440
H2008       H  0.76064476  0.32389612  0.02898822     0.14540
H2009       H  0.64898612  0.28586114  0.07415616     0.14570
C2010       C  0.68579528  0.23267085  0.04982436    -0.24390
H2011       H  0.75391366  0.37909827  0.04749894     0.04780
H2012       H  0.72742448  0.38463302  0.08443812     0.08010
H2013       H  0.71062048  0.39275116  0.04180645     0.08010
H2014       H  0.70474946  0.21848582  0.06539104     0.07990
H2015       H  0.68521886  0.22161520  0.02383457     0.07990
H2016       H  0.66029712  0.22857121  0.06162376     0.04770
C2017       C  0.68972657  0.26645434  0.96186227    -0.21040
C2018       C  0.72240196  0.27895429  0.96994336    -0.07600
C2019       C  0.73268968  0.31075746  0.95592183     0.13270
C2020       C  0.70854027  0.33129390  0.93920447    -0.21090
C2021       C  0.67425400  0.32094415  0.93605905    -0.07610
C2022       C  0.66538550  0.28697539  0.94529210     0.13260
C2023       C  0.62982941  0.27285161  0.94044546    -0.24440
H2024       H  0.68195667  0.24171695  0.97143777     0.14540
H2025       H  0.71613774  0.35661567  0.93061129     0.14570
C2026       C  0.76831654  0.32471642  0.95969093    -0.24390
H2027       H  0.62779282  0.24581956  0.94914494     0.04780
H2028       H  0.62290913  0.27352079  0.91290103     0.08010
H2029       H  0.61124263  0.28810380  0.95552246     0.08010
H2030       H  0.77970786  0.32860741  0.93396297     0.07990
H2031       H  0.78506672  0.30723914  0.97417368     0.07990
H2032       H  0.76757814  0.34975163  0.97317480     0.04770
C2033       C  0.81370702  0.03251819  0.23587613    -0.21040
C2034       C  0.77899494  0.03429954  0.22684355    -0.07600
C2035       C  0.76906319  0.05798633  0.20142497     0.13270
C2036       C  0.79428350  0.07265105  0.18043086    -0.21090
C2037       C  0.82905871  0.06574047  0.18580645    -0.07610
C2038       C  0.83901831  0.04723350  0.21521968     0.13260
C2039       C  0.87599161  0.03974560  0.22305239    -0.24440
H2040       H  0.82128207  0.01588181  0.25671864     0.14540
H2041       H  0.78682341  0.08869402  0.15905933     0.14570
C2042       C  0.73251119  0.06901274  0.19714967    -0.24390
H2043       H  0.87883272  0.02369160  0.24635263     0.04780
H2044       H  0.89002092  0.06408527  0.22749300     0.08010
H2045       H  0.88777920  0.02565543  0.20137729     0.08010
H2046       H  0.72412331  0.08248770  0.22066329     0.07990
H2047       H  0.71540262  0.04709376  0.19256117     0.07990
H2048       H  0.72951415  0.08711074  0.17542111     0.04770
C2049       C  0.78854751  0.95028136  0.16067165    -0.21040
C2050       C  0.81891282  0.93735242  0.17444278    -0.07600
C2051       C  0.82319468  0.93738603  0.21046478     0.13270
C2052       C  0.79866897  0.95374360  0.23117427    -0.21090
C2053       C  0.77109674  0.97152105  0.21655209    -0.07610
C2054       C  0.76479628  0.96742253  0.18112483     0.13260
C2055       C  0.73428760  0.98257525  0.16350834    -0.24440
H2056       H  0.78442812  0.94947639  0.13324613     0.14540
H2057       H  0.80325870  0.95621299  0.25840287     0.14570
C2058       C  0.85388770  0.92125233  0.22718050    -0.24390
H2059       H  0.72072326  0.96228548  0.14890958     0.04780
H2060       H  0.74259004  0.00306529  0.14559788     0.08010
H2061       H  0.71589497  0.99316083  0.18191101     0.08010
H2062       H  0.87745428  0.93552612  0.22035902     0.07990
H2063       H  0.85617552  0.89416988  0.21879989     0.07990
H2064       H  0.85174470  0.92150278  0.25551519     0.04770
C2065       C  0.68524045  0.04019996  0.26418522    -0.21040
C2066       C  0.71878456  0.03327900  0.27456644    -0.07600
C2067       C  0.73096257  0.04854361  0.30496769     0.13270
C2068       C  0.70755366  0.06434647  0.32724256    -0.21090
C2069       C  0.67264238  0.06675406  0.31891846    -0.07610
C2070       C  0.66187871  0.05648707  0.28586698     0.13260
C2071       C  0.62537371  0.05985179  0.27396094    -0.24440
H2072       H  0.67643360  0.03052906  0.23993933     0.14540
H2073       H  0.71639046  0.07404142  0.35166813     0.14570
C2074       C  0.76848161  0.04920182  0.31350553    -0.24390
H2075       H  0.62179564  0.04985885  0.24759663     0.04780
H2076       H  0.61780740  0.08726096  0.27379039     0.08010
H2077       H  0.60819369  0.04500469  0.29106987     0.08010
H2078       H  0.78217615  0.06458259  0.29395392     0.07990
H2079       H  0.77957694  0.02325419  0.31398106     0.07990
H2080       H  0.77326586  0.06125474  0.33879631     0.04770
C2081       C  0.73577939  0.96211362  0.30878850    -0.21040
C2082       C  0.72278427  0.96924459  0.27609604    -0.07600
C2083       C  0.69149498  0.95394201  0.26654437     0.13270
C2084       C  0.67085187  0.93897270  0.29183495    -0.21090
C2085       C  0.68111649  0.93820591  0.32628917    -0.07610
C2086       C  0.71513183  0.94761145  0.33438998     0.13260
C2087       C  0.72923271  0.94502072  0.37016411    -0.24440
H2088       H  0.76100345  0.97105221  0.31540909     0.14540
H2089       H  0.64578662  0.92938652  0.28489728     0.14570
C2090       C  0.67981134  0.95291560  0.22993671    -0.24390
H2091       H  0.75613279  0.95401806  0.37161511     0.04780
H2092       H  0.72870194  0.91789431  0.37862964     0.08010
H2093       H  0.71392817  0.96108164  0.38788526     0.08010
H2094       H  0.69942873  0.93983225  0.21419086     0.07990
H2095       H  0.67529601  0.97888789  0.21994290     0.07990
H2096       H  0.65553380  0.93841060  0.22709841     0.04770
C2097       C  0.04169052  0.80174997  0.23158695    -0.21040
C2098       C  0.03350072  0.76944794  0.21815604    -0.07600
C2099       C  0.04809516  0.76017539  0.18642737     0.13270
C2100       C  0.06327645  0.78546287  0.16581596    -0.21090
C2101       C  0.06515558  0.81980655  0.17655987    -0.07610
C2102       C  0.05634737  0.82742061  0.21105915     0.13260
C2103       C  0.06035227  0.86266761  0.22633526    -0.24440
H2104       H  0.03227122  0.80840331  0.25679068     0.14540
H2105       H  0.07217614  0.77840808  0.14052911     0.14570
C2106       C  0.04876383  0.72387015  0.17393798    -0.24390
H2107       H  0.05467185  0.86283944  0.25418166     0.04780
H2108       H  0.04238331  0.88086524  0.21404292     0.08010
H2109       H  0.08703300  0.87152680  0.22297276     0.08010
H2110       H  0.07566895  0.71594433  0.16975022     0.07990
H2111       H  0.03771670  0.70617365  0.19289762     0.07990
H2112       H  0.03484196  0.72158828  0.14934139     0.04770
C2113       C  0.96189450  0.80513254  0.23262991    -0.21040
C2114       C  0.96996157  0.77363168  0.21711150    -0.07600
C2115       C  0.95706886  0.76669382  0.18405595     0.13270
C2116       C  0.93936110  0.79212690  0.16646024    -0.21090
C2117       C  0.93676451  0.82550638  0.17944107    -0.07610
C2118       C  0.94667103  0.83178029  0.21372082     0.13260
C2119       C  0.94424553  0.86689087  0.22952751    -0.24440
H2120       H  0.97137764  0.81031379  0.25815010     0.14540
H2121       H  0.93057324  0.78664212  0.14071133     0.14570
C2122       C  0.96347186  0.73376957  0.16517061    -0.24390
H2123       H  0.95387170  0.86711544  0.25625717     0.04780
H2124       H  0.91720983  0.87531779  0.22999434     0.08010
H2125       H  0.95981394  0.88541802  0.21456528     0.08010
H2126       H  0.93870554  0.72126365  0.15908227     0.07990
H2127       H  0.97901913  0.71558364  0.18004034     0.07990
H2128       H  0.97702101  0.73931158  0.14083129     0.04770
C2129       C  0.04872201  0.72752067  0.29382385    -0.21040
C2130       C  0.02845315  0.71191804  0.26848498    -0.07600
C2131       C  0.02975976  0.67585619  0.26487054     0.13270
C2132       C  0.04759008  0.65630490  0.28882350    -0.21090
C2133       C  0.06328138  0.67156243  0.31714238    -0.07610
C2134       C  0.06525491  0.70771981  0.31897422     0.13260
C2135       C  0.08362754  0.72549039  0.34784404    -0.24440
H2136       H  0.04807141  0.75515007  0.29650162     0.14540
H2137       H  0.04660756  0.62858991  0.28686911     0.14570
C2138       C  0.01073018  0.65669471  0.23750702    -0.24390
H2139       H  0.08423980  0.75371010  0.34412774     0.04780
H2140       H  0.11039161  0.71621993  0.34929099     0.08010
H2141       H  0.07049253  0.72037981  0.37247861     0.08010
H2142       H  0.02873382  0.63996855  0.22329476     0.07990
H2143       H  0.99898543  0.67400086  0.21873354     0.07990
H2144       H  0.99048221  0.64058044  0.24929764     0.04770
C2145       C  0.97160642  0.73584639  0.31277735    -0.21040
C2146       C  0.96699944  0.72672064  0.27819376    -0.07600
C2147       C  0.94061190  0.70311432  0.27036197     0.13270
C2148       C  0.92630380  0.68339398  0.29678830    -0.21090
C2149       C  0.93660373  0.68779644  0.33080771    -0.07610
C2150       C  0.95778281  0.71583115  0.33926878     0.13260
C2151       C  0.96884536  0.72249038  0.37560600    -0.24440
H2152       H  0.99002262  0.75559264  0.31910428     0.14540
H2153       H  0.90828870  0.66315880  0.29068635     0.14570
C2154       C  0.92662150  0.69881410  0.23487184    -0.24390
H2155       H  0.98651901  0.74472574  0.37736056     0.04780
H2156       H  0.98235868  0.69968847  0.38589570     0.08010
H2157       H  0.94616860  0.72808853  0.39170506     0.08010
H2158       H  0.94592139  0.68819805  0.21754175     0.07990
H2159       H  0.91734233  0.72385857  0.22528654     0.07990
H2160       H  0.90456561  0.68086518  0.23440943     0.04770
C2161       C  0.23826031  0.04022267  0.81460513    -0.21040
C2162       C  0.22742271  0.03284432  0.78126584    -0.07600
C2163       C  0.19604567  0.04666955  0.76997882     0.13270
C2164       C  0.17370072  0.06137735  0.79396452    -0.21090
C2165       C  0.18250924  0.06372559  0.82877129    -0.07610
C2166       C  0.21617427  0.05483822  0.83871066     0.13260
C2167       C  0.22855510  0.05802657  0.87501521    -0.24440
H2168       H  0.26271922  0.03085979  0.82313261     0.14540
H2169       H  0.14873906  0.07002087  0.78565969     0.14570
C2170       C  0.18608837  0.04625234  0.73279648    -0.24390
H2171       H  0.25520556  0.04879058  0.87809670     0.04780
H2172       H  0.21213387  0.04266541  0.89240736     0.08010
H2173       H  0.22819777  0.08534113  0.88242843     0.08010
H2174       H  0.18696402  0.02012082  0.72205561     0.07990
H2175       H  0.20390328  0.06292623  0.71832143     0.07990
H2176       H  0.15989044  0.05640522  0.72884604     0.04770
C2177       C  0.21203375  0.93994998  0.83452385    -0.21040
C2178       C  0.17793211  0.93573214  0.82429935    -0.07600
C2179       C  0.16911546  0.94310394  0.78986542     0.13270
C2180       C  0.19301962  0.95959067  0.76878760    -0.21090
C2181       C  0.22542902  0.96889832  0.78091306    -0.07610
C2182       C  0.23589492  0.95627259  0.81324445     0.13260
C2183       C  0.27138956  0.96116613  0.82701730    -0.24440
H2184       H  0.21965723  0.93285744  0.86022537     0.14540
H2185       H  0.18495727  0.96817178  0.74384893     0.14570
C2186       C  0.13438084  0.93494669  0.77515271    -0.24390
H2187       H  0.27046286  0.97605346  0.85120750     0.04780
H2188       H  0.28297262  0.93576384  0.83232173     0.08010
H2189       H  0.28804781  0.97471113  0.80878550     0.08010
H2190       H  0.11462944  0.95191033  0.78635989     0.07990
H2191       H  0.12791574  0.90767658  0.78015084     0.07990
H2192       H  0.13371532  0.93894130  0.74701821     0.04770
C2193       C  0.26882451  0.04125689  0.69386150    -0.21040
C2194       C  0.28090552  0.03166618  0.72622530    -0.07600
C2195       C  0.31313627  0.04431190  0.73688700     0.13270
C2196       C  0.33437206  0.06102747  0.71323182    -0.21090
C2197       C  0.32425486  0.06554988  0.67909184    -0.07610
C2198       C  0.28989670  0.05801405  0.67010327     0.13260
C2199       C  0.27527106  0.06612007  0.63528731    -0.24440
H2200       H  0.24390260  0.03273910  0.68571633     0.14540
H2201       H  0.35997571  0.06819862  0.72102940     0.14570
C2202       C  0.32680350  0.03914048  0.77241294    -0.24390
H2203       H  0.24719188  0.06198532  0.63452827     0.04780
H2204       H  0.28657724  0.04917784  0.61553846     0.08010
H2205       H  0.28017990  0.09340985  0.62882836     0.08010
H2206       H  0.30858733  0.02537518  0.78891183     0.10070
H2207       H  0.33201022  0.06445509  0.78429511     0.07990
H2208       H  0.35098804  0.02434459  0.77138285     0.04770
C2209       C  0.31412090  0.95970991  0.73902696    -0.21040
C2210       C  0.28093767  0.96759935  0.72806998    -0.07600
C2211       C  0.26935309  0.95358838  0.69681901     0.13270
C2212       C  0.29299006  0.93820612  0.67461791    -0.21090
C2213       C  0.32767975  0.93530063  0.68347283    -0.07610
C2214       C  0.33782113  0.94406487  0.71715732     0.13260
C2215       C  0.37406871  0.93997935  0.72957125    -0.24440
H2216       H  0.32290424  0.96930286  0.76335299     0.14540
H2217       H  0.28455154  0.92957857  0.64964823     0.14570
C2218       C  0.23226350  0.95459413  0.68672991    -0.24390
H2219       H  0.37713149  0.94855262  0.75649455     0.04780
H2220       H  0.39160687  0.95566483  0.71361282     0.08010
H2221       H  0.38157694  0.91257745  0.72842413     0.08010
H2222       H  0.22196090  0.98088103  0.68760543     0.07990
H2223       H  0.21750419  0.93809262  0.70445932     0.07990
H2224       H  0.22821595  0.94451158  0.66046691     0.04770
C2225       C  0.06889966  0.20865723  0.82563046    -0.21040
C2226       C  0.06614326  0.17360944  0.81794422    -0.07600
C2227       C  0.05186616  0.16390215  0.78613328     0.13270
C2228       C  0.03726196  0.18914310  0.76507011    -0.21090
C2229       C  0.03475072  0.22349578  0.77562920    -0.07610
C2230       C  0.05373907  0.23374251  0.80473824     0.13260
C2231       C  0.05753569  0.27075310  0.81463450    -0.24440
H2232       H  0.08136302  0.21633781  0.84918032     0.14540
H2233       H  0.02429951  0.18122350  0.74203488     0.14570
C2234       C  0.04890314  0.12686651  0.77552292    -0.24390
H2235       H  0.07386568  0.27388870  0.83766137     0.04780
H2236       H  0.03248871  0.28208262  0.82065285     0.08010
H2237       H  0.06992222  0.28502474  0.79346601     0.08010
H2238       H  0.03364925  0.11243265  0.79470507     0.07990
H2239       H  0.07473896  0.11541130  0.77324992     0.07990
H2240       H  0.03600913  0.12403832  0.75036743     0.04770
C2241       C  0.96869938  0.23626717  0.81669091    -0.21040
C2242       C  0.97151072  0.22835444  0.78200817    -0.07600
C2243       C  0.95322675  0.19990327  0.76911003     0.13270
C2244       C  0.93780565  0.17685336  0.79221746    -0.21090
C2245       C  0.93977458  0.18214322  0.82778599    -0.07610
C2246       C  0.95380427  0.21361735  0.83990501     0.13260
C2247       C  0.95559742  0.22338877  0.87726557    -0.24440
H2248       H  0.98172037  0.25860541  0.82643724     0.14540
H2249       H  0.92551987  0.15395654  0.78247409     0.14570
C2250       C  0.94952071  0.19403476  0.73124162    -0.24390
H2251       H  0.96510183  0.24996650  0.88104511     0.04780
H2252       H  0.97350125  0.20624389  0.89110325     0.08010
H2253       H  0.92977243  0.22204849  0.88866563     0.08010
H2254       H  0.97462429  0.19313545  0.71832650     0.07990
H2255       H  0.93429690  0.21519744  0.72006859     0.07990
H2256       H  0.93587143  0.16968220  0.72571101     0.04770
C2257       C  0.04861297  0.27243651  0.70239424    -0.21040
C2258       C  0.03331729  0.28746813  0.73124494    -0.07600
C2259       C  0.03934799  0.32267989  0.73768176     0.13270
C2260       C  0.05603421  0.34265511  0.71315582    -0.21090
C2261       C  0.06587604  0.32880653  0.68165008    -0.07610
C2262       C  0.06410408  0.29282246  0.67698246     0.13260
C2263       C  0.07740087  0.27585996  0.64502346    -0.24440
H2264       H  0.04456343  0.24537050  0.69762084     0.14540
H2265       H  0.05843400  0.36999571  0.71755356     0.14570
C2266       C  0.02664771  0.34079386  0.76910575    -0.24390
H2267       H  0.07622577  0.24748000  0.64696491     0.04780
H2268       H  0.10447339  0.28331124  0.64081116     0.08010
H2269       H  0.06183559  0.28343151  0.62256551     0.08010
H2270       H  0.01317351  0.32341900  0.78678099     0.07990
H2271       H  0.00901874  0.36173295  0.76156447     0.07990
H2272       H  0.04862952  0.35209602  0.78308936     0.04770
C2273       C  0.96832481  0.27114312  0.69267570    -0.21040
C2274       C  0.97031626  0.28155039  0.72691661    -0.07600
C2275       C  0.95029929  0.30973327  0.73747839     0.13270
C2276       C  0.93497906  0.33073197  0.71262057    -0.21090
C2277       C  0.93869784  0.32380087  0.67749478    -0.07610
C2278       C  0.95330079  0.29189127  0.66767337     0.13260
C2279       C  0.95529750  0.27984547  0.63100085    -0.24440
H2280       H  0.98236641  0.24858735  0.68475164     0.14540
H2281       H  0.92172055  0.35366059  0.72081830     0.14570
C2282       C  0.94452972  0.31833798  0.77446715    -0.24390
H2283       H  0.96501690  0.25317899  0.62910090     0.04780
H2284       H  0.97320805  0.29624248  0.61622336     0.08010
H2285       H  0.92948113  0.28024064  0.61923809     0.08010
H2286       H  0.95819301  0.30068877  0.79171680     0.07990
H2287       H  0.91682893  0.31638769  0.78028998     0.07990
H2288       H  0.95298818  0.34493975  0.77983081     0.04770
loop_ 
_geom_bond_atom_site_label_1 
_geom_bond_atom_site_label_2 
_geom_bond_distance 
_geom_bond_site_symmetry_2 
_ccdc_geom_bond_type 
C1            C2   1.360       .  D
C1         C2258   1.492       .  S
C1         C2274   1.495   1_455  S
C2         C2229   1.503       .  S
C2         C2242   1.490   1_455  S
C3            C4   1.359   1_565  D
C3         C2194   1.496   1_565  S
C3         C2210   1.494       .  S
C4         C2162   1.493       .  S
C4         C2181   1.495   1_545  S
C5            C6   1.360   1_655  D
C5         C2130   1.494   1_655  S
C5         C2146   1.504       .  S
C6         C2098   1.500       .  S
C6         C2114   1.489   1_455  S
C7            C8   1.356       .  D
C7         C2066   1.494       .  S
C7         C2082   1.496   1_545  S
C8         C2034   1.494       .  S
C8         C2053   1.497   1_545  S
C9           C10   1.359       .  D
C9         C2002   1.493       .  S
C9         C2018   1.495   1_554  S
C10        C1973   1.496       .  S
C10        C1986   1.492   1_554  S
C11          C12   1.358       .  D
C11        C1938   1.495       .  S
C11        C1957   1.498   1_554  S
C12        C1909   1.499       .  S
C12        C1922   1.493   1_554  S
C13          C14   1.357       .  D
C13        C1874   1.491       .  S
C13        C1890   1.491   1_554  S
C14        C1845   1.497       .  S
C14        C1858   1.497   1_554  S
C15          C16   1.361       .  D
C15        C1813   1.499   1_565  S
C15        C1829   1.500       .  S
C16        C1778   1.499   1_565  S
C16        C1794   1.502       .  S
C17          C18   1.358   1_455  D
C17        C1714   1.498       .  S
C17        C1730   1.497   1_455  S
C18        C1746   1.492   1_655  S
C18        C1762   1.495       .  S
O19          C34   1.257       .  A
O19         Al27   1.893       .  S
C20          O30   1.258       .  A
C20          O21   1.265       .  A
C20         C167   1.468   1_565  S
O21         Al23   1.920       .  S
O22          C24   1.264       .  A
O22         Al23   1.904       .  S
Al23         O31   1.908       .  S
Al23         O33   1.910       .  S
Al23         O32   1.789       .  S
C24          O37   1.263       .  A
C24          C68   1.470   1_556  S
O25          C35   1.258       .  A
O25         Al27   1.895       .  S
O26          C39   1.259       .  A
O26         Al36   1.891       .  S
Al27         O40   1.908       .  S
Al27         O37   1.915       .  S
Al27         O32   1.788       .  S
O28          C35   1.257       .  A
O28         Al36   1.891       .  S
O29          C38   1.258       .  A
O29         Al36   1.898       .  S
O30         Al36   1.896       .  S
O31          C38   1.262       .  A
O32         Al36   1.790       .  S
O33          C34   1.260       .  A
C34        C1925   1.484       .  S
C35          C57   1.457   1_455  S
C38        C2178   1.486       .  S
C39          O40   1.262       .  A
C39        C1717   1.476       .  S
O41          C56   1.257       .  A
O41         Al49   1.888       .  S
C42          O52   1.260       .  A
C42          O43   1.264       .  A
C42         C101   1.470   1_556  S
O43         Al45   1.923       .  S
O44          C46   1.260       .  A
O44         Al45   1.896       .  S
Al45         O53   1.899       .  S
Al45         O55   1.908       .  S
Al45         O54   1.788       .  S
C46          O59   1.260       .  A
C46         C112   1.469   1_565  S
O47          C57   1.259       .  A
O47         Al49   1.886       .  S
O48          C61   1.260       .  A
O48         Al58   1.896       .  S
Al49         O62   1.911       .  S
Al49         O59   1.914       .  S
Al49         O54   1.795       .  S
O50          C57   1.260       .  A
O50         Al58   1.908       .  S
O51          C60   1.259       .  A
O51         Al58   1.901       .  S
O52         Al58   1.894       .  S
O53          C60   1.257       .  A
O54         Al58   1.791       .  S
O55          C56   1.263       .  A
C56        C1797   1.473       .  S
C60        C1861   1.484       .  S
C61          O62   1.260       .  A
C61        C1733   1.481       .  S
O63          C78   1.258       .  A
O63         Al71   1.892       .  S
C64          O74   1.262       .  A
C64          O65   1.263       .  A
C64          C86   1.470   1_455  S
O65         Al67   1.913       .  S
O66          C68   1.260       .  A
O66         Al67   1.905       .  S
Al67         O75   1.910       .  S
Al67         O77   1.907       .  S
Al67         O76   1.795       .  S
C68          O81   1.257       .  A
O69          C79   1.259       .  A
O69         Al71   1.894       .  S
O70          C83   1.261       .  A
O70         Al80   1.915       .  S
Al71         O84   1.893       .  S
Al71         O81   1.901       .  S
Al71         O76   1.795       .  S
O72          C79   1.260       .  A
O72         Al80   1.906       .  S
O73          C82   1.255       .  A
O73         Al80   1.894       .  S
O74         Al80   1.902       .  S
O75          C82   1.260       .  A
O76         Al80   1.797       .  S
O77          C78   1.262       .  A
C78        C1906   1.484       .  S
C79         C174   1.462   1_565  S
C82        C2101   1.496       .  S
C83          O84   1.259       .  A
C83        C1701   1.493       .  S
O85         C100   1.259       .  A
O85         Al93   1.898       .  S
C86          O96   1.261       .  A
C86          O87   1.262       .  A
O87         Al89   1.918       .  S
O88          C90   1.261       .  A
O88         Al89   1.893       .  S
Al89         O97   1.904       .  S
Al89         O99   1.907       .  S
Al89         O98   1.797       .  S
C90         O103   1.262       .  A
C90         C134   1.460   1_565  S
O91         C101   1.260       .  A
O91         Al93   1.903       .  S
O92         C105   1.258       .  A
O92        Al102   1.897       .  S
Al93        O106   1.902       .  S
Al93        O103   1.905       .  S
Al93         O98   1.792       .  S
O94         C101   1.260       .  A
O94        Al102   1.908       .  S
O95         C104   1.261       .  A
O95        Al102   1.891       .  S
O96        Al102   1.899       .  S
O97         C104   1.259       .  A
O98        Al102   1.788       .  S
O99         C100   1.258       .  A
C100       C2050   1.484       .  S
C104       C2117   1.483       .  S
C105        O106   1.261       .  A
C105       C1842   1.484       .  S
O107        C122   1.257       .  A
O107       Al115   1.893       .  S
C108        O118   1.262       .  A
C108        O109   1.265       .  A
C108        C152   1.474   1_655  S
O109       Al111   1.920       .  S
O110        C112   1.264       .  A
O110       Al111   1.908       .  S
Al111       O119   1.923       .  S
Al111       O121   1.908       .  S
Al111       O120   1.799       .  S
C112        O125   1.262       .  A
O113        C123   1.257       .  A
O113       Al115   1.903       .  S
O114        C127   1.261       .  A
O114       Al124   1.899       .  S
Al115       O128   1.907       .  S
Al115       O125   1.903       .  S
Al115       O120   1.794       .  S
O116        C123   1.253       .  A
O116       Al124   1.884       .  S
O117        C126   1.252       .  A
O117       Al124   1.873       .  S
O118       Al124   1.906       .  S
O119        C126   1.263       .  A
O120       Al124   1.790       .  S
O121        C122   1.257       .  A
C122       C1781   1.489       .  S
C123        C130   1.463   1_556  S
C126       C2245   1.490       .  S
C127        O128   1.263       .  A
C127       C1989   1.488       .  S
O129        C144   1.257       .  A
O129       Al137   1.891       .  S
C130        O140   1.261       .  A
C130        O131   1.262       .  A
O131       Al133   1.913       .  S
O132        C134   1.259       .  A
O132       Al133   1.892       .  S
Al133       O141   1.898       .  S
Al133       O143   1.902       .  S
Al133       O142   1.791       .  S
C134        O147   1.259       .  A
O135        C145   1.258       .  A
O135       Al137   1.892       .  S
O136        C149   1.260       .  A
O136       Al146   1.900       .  S
Al137       O150   1.898       .  S
Al137       O147   1.901       .  S
Al137       O142   1.790       .  S
O138        C145   1.261       .  A
O138       Al146   1.915       .  S
O139        C148   1.261       .  A
O139       Al146   1.907       .  S
O140       Al146   1.891       .  S
O141        C148   1.257       .  A
O142       Al146   1.789       .  S
O143        C144   1.260       .  A
C144       C2037   1.475       .  S
C145        C189   1.465   1_655  S
C148       C1970   1.486       .  S
C149        O150   1.259       .  A
C149       C1682   1.480       .  S
O151        C166   1.257       .  A
O151       Al159   1.894       .  S
C152        O162   1.263       .  A
C152        O153   1.263       .  A
O153       Al155   1.912       .  S
O154        C156   1.263       .  A
O154       Al155   1.914       .  S
Al155       O163   1.911       .  S
Al155       O165   1.915       .  S
Al155       O164   1.787       .  S
C156        O169   1.263       .  A
C156        C178   1.470   1_556  S
O157        C167   1.258       .  A
O157       Al159   1.901       .  S
O158        C171   1.265       .  A
O158       Al168   1.917       .  S
Al159       O172   1.899       .  S
Al159       O169   1.907       .  S
Al159       O164   1.785       .  S
O160        C167   1.261       .  A
O160       Al168   1.910       .  S
O161        C170   1.259       .  A
O161       Al168   1.903       .  S
O162       Al168   1.913       .  S
O163        C170   1.262       .  A
O164       Al168   1.787       .  S
O165        C166   1.263       .  A
C166       C1666   1.492       .  S
C170       C2226   1.488       .  S
C171        O172   1.261       .  A
C171       C2165   1.489       .  S
O173        C188   1.256       .  A
O173       Al181   1.888       .  S
C174        O184   1.259       .  A
C174        O175   1.261       .  A
O175       Al177   1.912       .  S
O176        C178   1.260       .  A
O176       Al177   1.899       .  S
Al177       O185   1.894       .  S
Al177       O187   1.919       .  S
Al177       O186   1.787       .  S
C178        O191   1.266       .  A
O179        C189   1.260       .  A
O179       Al181   1.896       .  S
O180        C193   1.258       .  A
O180       Al190   1.891       .  S
Al181       O194   1.912       .  S
Al181       O191   1.924       .  S
Al181       O186   1.785       .  S
O182        C189   1.262       .  A
O182       Al190   1.912       .  S
O183        C192   1.263       .  A
O183       Al190   1.913       .  S
O184       Al190   1.892       .  S
O185        C192   1.259       .  A
O186       Al190   1.787       .  S
O187        C188   1.262       .  A
C188       C1650   1.483       .  S
C192       C1637   1.487       .  S
C193        O194   1.261       .  A
C193       C1618   1.478       .  S
C195        C196   1.354       .  D
C195       C1557   1.489       .  S
C195       C1589   1.490       .  S
C196       C1570   1.495       .  S
C196       C1605   1.494       .  S
C197        C198   1.360       .  D
C197       C1506   1.495       .  S
C197       C1538   1.500       .  S
C198       C1493   1.500       .  S
C198       C1522   1.495       .  S
C199        C200   1.364       .  D
C199       C1445   1.497       .  S
C199       C1474   1.497       .  S
C200       C1426   1.497       .  S
C200       C1458   1.497       .  S
C201        C202   1.355       .  D
C201       C1653   1.492       .  S
C201       C1669   1.496   1_554  S
C202       C1397   1.495       .  S
C202       C1410   1.494   1_554  S
C203        C204   1.361       .  D
C203       C1634   1.495       .  S
C203       C1698   1.495   1_545  S
C204       C1365   1.500       .  S
C204       C1381   1.505   1_545  S
C205        C206   1.359       .  D
C205       C1314   1.493       .  S
C205       C1346   1.493       .  S
C206       C1298   1.501       .  S
C206       C1330   1.496       .  S
C207        C208   1.359       .  D
C207       C1266   1.493       .  S
C207       C1282   1.500       .  S
C208       C1237   1.501       .  S
C208       C1250   1.489       .  S
C209        C210   1.361       .  D
C209       C1189   1.500       .  S
C209       C1218   1.495       .  S
C210       C1170   1.497       .  S
C210       C1202   1.504       .  S
O211        C226   1.257       .  A
O211       Al219   1.883       .  S
C212        O222   1.258       .  A
C212        O213   1.262       .  A
C212        C271   1.478       .  S
O213       Al215   1.922       .  S
O214        C216   1.258       .  A
O214       Al215   1.889       .  S
Al215       O223   1.887       .  S
Al215       O225   1.922       .  S
Al215       O224   1.795       .  S
C216        O229   1.263       .  A
C216        C366   1.461       .  S
O217        C227   1.260       .  A
O217       Al219   1.904       .  S
O218        C231   1.260       .  A
O218       Al228   1.889       .  S
Al219       O232   1.917       .  S
Al219       O229   1.906       .  S
Al219       O224   1.795       .  S
O220        C227   1.263       .  A
O220       Al228   1.912       .  S
O221        C230   1.260       .  A
O221       Al228   1.903       .  S
O222       Al228   1.899       .  S
O223        C230   1.260       .  A
O224       Al228   1.790       .  S
O225        C226   1.261       .  A
C226       C1234   1.495       .  S
C227        C249   1.471   1_565  S
C230       C1173   1.485       .  S
C231        O232   1.260       .  A
C231       C1378   1.494       .  S
O233        C248   1.259       .  A
O233       Al241   1.896       .  S
C234        O244   1.261       .  A
C234        O235   1.261       .  A
C234        C359   1.465       .  S
O235       Al237   1.913       .  S
O236        C238   1.256       .  A
O236       Al237   1.878       .  S
Al237       O245   1.888       .  S
Al237       O247   1.910       .  S
Al237       O246   1.788       .  S
C238        O251   1.261       .  A
C238        C293   1.453       .  S
O239        C249   1.259       .  A
O239       Al241   1.901       .  S
O240        C253   1.258       .  A
O240       Al250   1.894       .  S
Al241       O254   1.911       .  S
Al241       O251   1.908       .  S
Al241       O246   1.789       .  S
O242        C249   1.264       .  A
O242       Al250   1.919       .  S
O243        C252   1.263       .  A
O243       Al250   1.914       .  S
O244       Al250   1.897       .  S
O245        C252   1.257       .  A
O246       Al250   1.784       .  S
O247        C248   1.262       .  A
C248       C1573   1.482       .  S
C252       C1490   1.478       .  S
C253        O254   1.262       .  A
C253       C1362   1.476       .  S
O255        C270   1.263       .  A
O255       Al263   1.917       .  S
C256        O266   1.261       .  A
C256        O257   1.257       .  A
C256        C282   1.468   1_565  S
O257       Al259   1.897       .  S
O258        C260   1.261       .  A
O258       Al259   1.902       .  S
Al259       O267   1.900       .  S
Al259       O269   1.893       .  S
Al259       O268   1.792       .  S
C260        O273   1.262       .  A
C260        C315   1.465       .  S
O261        C271   1.263       .  A
O261       Al263   1.916       .  S
O262        C275   1.258       .  A
O262       Al272   1.901       .  S
Al263       O276   1.902       .  S
Al263       O273   1.906       .  S
Al263       O268   1.792       .  S
O264        C271   1.264       .  A
O264       Al272   1.912       .  S
O265        C274   1.263       .  A
O265       Al272   1.906       .  S
O266       Al272   1.909       .  S
O267        C274   1.260       .  A
O268       Al272   1.790       .  S
O269        C270   1.256       .  A
C270       C1154   1.495       .  S
C274       C2085   1.487       .  S
C275        O276   1.260       .  A
C275       C1205   1.487       .  S
O277        C292   1.256       .  A
O277       Al285   1.894       .  S
C278        O288   1.260       .  A
C278        O279   1.263       .  A
C278        C337   1.474       .  S
O279       Al281   1.916       .  S
O280        C282   1.264       .  A
O280       Al281   1.903       .  S
Al281       O289   1.895       .  S
Al281       O291   1.910       .  S
Al281       O290   1.785       .  S
C282        O295   1.263       .  A
O283        C293   1.257       .  A
O283       Al285   1.885       .  S
O284        C297   1.258       .  A
O284       Al294   1.895       .  S
Al285       O298   1.902       .  S
Al285       O295   1.915       .  S
Al285       O290   1.788       .  S
O286        C293   1.259       .  A
O286       Al294   1.893       .  S
O287        C296   1.259       .  A
O287       Al294   1.904       .  S
O288       Al294   1.908       .  S
O289        C296   1.262       .  A
O290       Al294   1.792       .  S
O291        C292   1.259       .  A
C292       C2069   1.486       .  S
C296       C1141   1.482       .  S
C297        O298   1.261       .  A
C297       C1602   1.482       .  S
O299        C314   1.258       .  A
O299       Al307   1.896       .  S
C300        O310   1.262       .  A
C300        O301   1.261       .  A
C300        C326   1.457   1_565  S
O301       Al303   1.890       .  S
O302        C304   1.260       .  A
O302       Al303   1.907       .  S
Al303       O311   1.883       .  S
Al303       O313   1.914       .  S
Al303       O312   1.782       .  S
C304        O317   1.261       .  A
C304        C370   1.461       .  S
O305        C315   1.260       .  A
O305       Al307   1.904       .  S
O306        C319   1.264       .  A
O306       Al316   1.919       .  S
Al307       O320   1.890       .  S
Al307       O317   1.897       .  S
Al307       O312   1.779       .  S
O308        C315   1.259       .  A
O308       Al316   1.903       .  S
O309        C318   1.262       .  A
O309       Al316   1.922       .  S
O310       Al316   1.909       .  S
O311        C318   1.259       .  A
O312       Al316   1.792       .  S
O313        C314   1.263       .  A
C314       C1349   1.487       .  S
C318       C1826   1.489       .  S
C319        O320   1.257       .  A
C319       C1122   1.479       .  S
O321        C336   1.258       .  A
O321       Al329   1.897       .  S
C322        O332   1.264       .  A
C322        O323   1.262       .  A
C322        C348   1.476       .  S
O323       Al325   1.912       .  S
O324        C326   1.258       .  A
O324       Al325   1.892       .  S
Al325       O333   1.883       .  S
Al325       O335   1.917       .  S
Al325       O334   1.787       .  S
C326        O339   1.261       .  A
O327        C337   1.262       .  A
O327       Al329   1.910       .  S
O328        C341   1.264       .  A
O328       Al338   1.917       .  S
Al329       O342   1.895       .  S
Al329       O339   1.899       .  S
Al329       O334   1.787       .  S
O330        C337   1.262       .  A
O330       Al338   1.913       .  S
O331        C340   1.261       .  A
O331       Al338   1.916       .  S
O332       Al338   1.917       .  S
O333        C340   1.260       .  A
O334       Al338   1.791       .  S
O335        C336   1.264       .  A
C336       C1810   1.496       .  S
C340       C1106   1.490       .  S
C341        O342   1.257       .  A
C341       C1090   1.492       .  S
O343        C358   1.258       .  A
O343       Al351   1.901       .  S
C344        O354   1.261       .  A
C344        O345   1.263       .  A
C344        C381   1.469   1_545  S
O345       Al347   1.913       .  S
O346        C348   1.264       .  A
O346       Al347   1.917       .  S
Al347       O355   1.912       .  S
Al347       O357   1.908       .  S
Al347       O356   1.790       .  S
C348        O361   1.262       .  A
O349        C359   1.261       .  A
O349       Al351   1.905       .  S
O350        C363   1.261       .  A
O350       Al360   1.903       .  S
Al351       O364   1.898       .  S
Al351       O361   1.909       .  S
Al351       O356   1.790       .  S
O352        C359   1.258       .  A
O352       Al360   1.898       .  S
O353        C362   1.257       .  A
O353       Al360   1.894       .  S
O354       Al360   1.902       .  S
O355        C362   1.262       .  A
O356       Al360   1.791       .  S
O357        C358   1.261       .  A
C358       C1077   1.485       .  S
C362       C2197   1.488       .  S
C363        O364   1.259       .  A
C363       C1525   1.483       .  S
O365        C380   1.261       .  A
O365       Al373   1.900       .  S
C366        O376   1.259       .  A
C366        O367   1.261       .  A
O367       Al369   1.896       .  S
O368        C370   1.257       .  A
O368       Al369   1.895       .  S
Al369       O377   1.885       .  S
Al369       O379   1.904       .  S
Al369       O378   1.788       .  S
C370        O383   1.260       .  A
O371        C381   1.263       .  A
O371       Al373   1.911       .  S
O372        C385   1.260       .  A
O372       Al382   1.906       .  S
Al373       O386   1.895       .  S
Al373       O383   1.900       .  S
Al373       O378   1.786       .  S
O374        C381   1.262       .  A
O374       Al382   1.904       .  S
O375        C384   1.263       .  A
O375       Al382   1.908       .  S
O376       Al382   1.905       .  S
O377        C384   1.256       .  A
O378       Al382   1.791       .  S
O379        C380   1.259       .  A
C380       C1317   1.487       .  S
C384       C1253   1.486       .  S
C385        O386   1.257       .  A
C385       C2213   1.486       .  S
C387        C388   1.358       .  D
C387       C1042   1.491       .  S
C387       C1058   1.494       .  S
C388       C1125   1.494       .  S
C388       C1157   1.499       .  S
C389        C390   1.369       .  D
C389       C1010   1.496       .  S
C389       C1026   1.509       .  S
C390        C978   1.508       .  S
C390        C994   1.497       .  S
C391        C392   1.362       .  D
C391        C949   1.495       .  S
C391        C962   1.503       .  S
C392       C1074   1.506       .  S
C392       C1109   1.496       .  S
O393        C408   1.260       .  A
O393       Al401   1.899       .  S
C394        O404   1.262       .  A
C394        O395   1.262       .  A
C394        C519   1.467       .  S
O395       Al397   1.910       .  S
O396        C398   1.259       .  A
O396       Al397   1.892       .  S
Al397       O405   1.896       .  S
Al397       O407   1.901       .  S
Al397       O406   1.788       .  S
C398        O411   1.260       .  A
C398        C420   1.459   1_554  S
O399        C409   1.260       .  A
O399       Al401   1.904       .  S
O400        C413   1.260       .  A
O400       Al410   1.893       .  S
Al401       O414   1.907       .  S
Al401       O411   1.902       .  S
Al401       O406   1.790       .  S
O402        C409   1.261       .  A
O402       Al410   1.906       .  S
O403        C412   1.257       .  A
O403       Al410   1.896       .  S
O404       Al410   1.902       .  S
O405        C412   1.259       .  A
O406       Al410   1.787       .  S
O407        C408   1.259       .  A
C408       C1877   1.480       .  S
C409        C453   1.467       .  S
C412        C933   1.482       .  S
C413        O414   1.259       .  A
C413       C1221   1.482       .  S
O415        C430   1.261       .  A
O415       Al423   1.897       .  S
C416        O426   1.263       .  A
C416        O417   1.260       .  A
C416        C460   1.470       .  S
O417       Al419   1.901       .  S
O418        C420   1.256       .  A
O418       Al419   1.892       .  S
Al419       O427   1.883       .  S
Al419       O429   1.904       .  S
Al419       O428   1.794       .  S
C420        O433   1.255       .  A
O421        C431   1.262       .  A
O421       Al423   1.896       .  S
O422        C435   1.261       .  A
O422       Al432   1.928       .  S
Al423       O436   1.877       .  S
Al423       O433   1.894       .  S
Al423       O428   1.792       .  S
O424        C431   1.264       .  A
O424       Al432   1.919       .  S
O425        C434   1.259       .  A
O425       Al432   1.901       .  S
O426       Al432   1.908       .  S
O427        C434   1.254       .  A
O428       Al432   1.797       .  S
O429        C430   1.260       .  A
C430       C1893   1.480       .  S
C431        C497   1.467       .  S
C434       C1333   1.477       .  S
C435        O436   1.256       .  A
C435        C914   1.496       .  S
O437        C452   1.264       .  A
O437       Al445   1.910       .  S
C438        O448   1.264       .  A
C438        O439   1.262       .  A
C438        C475   1.466   1_554  S
O439       Al441   1.901       .  S
O440        C442   1.259       .  A
O440       Al441   1.903       .  S
Al441       O449   1.891       .  S
Al441       O451   1.896       .  S
Al441       O450   1.781       .  S
C442        O455   1.262       .  A
C442        C563   1.470       .  S
O443        C453   1.263       .  A
O443       Al445   1.906       .  S
O444        C457   1.262       .  A
O444       Al454   1.907       .  S
Al445       O458   1.897       .  S
Al445       O455   1.913       .  S
Al445       O450   1.782       .  S
O446        C453   1.262       .  A
O446       Al454   1.906       .  S
O447        C456   1.261       .  A
O447       Al454   1.917       .  S
O448       Al454   1.915       .  S
O449        C456   1.260       .  A
O450       Al454   1.787       .  S
O451        C452   1.260       .  A
C452       C1461   1.484       .  S
C456       C1941   1.490       .  S
C457        O458   1.258       .  A
C457       C1186   1.490       .  S
O459        C474   1.256       .  A
O459       Al467   1.901       .  S
C460        O470   1.262       .  A
C460        O461   1.262       .  A
O461       Al463   1.918       .  S
O462        C464   1.260       .  A
O462       Al463   1.893       .  S
Al463       O471   1.907       .  S
Al463       O473   1.905       .  S
Al463       O472   1.787       .  S
C464        O477   1.263       .  A
C464        C526   1.463       .  S
O465        C475   1.259       .  A
O465       Al467   1.899       .  S
O466        C479   1.259       .  A
O466       Al476   1.896       .  S
Al467       O480   1.914       .  S
Al467       O477   1.914       .  S
Al467       O472   1.788       .  S
O468        C475   1.262       .  A
O468       Al476   1.911       .  S
O469        C478   1.260       .  A
O469       Al476   1.902       .  S
O470       Al476   1.902       .  S
O471        C478   1.262       .  A
O472       Al476   1.784       .  S
O473        C474   1.263       .  A
C474        C997   1.492       .  S
C478       C1301   1.483       .  S
C479        O480   1.262       .  A
C479       C1954   1.480       .  S
O481        C496   1.258       .  A
O481       Al489   1.898       .  S
C482        O492   1.261       .  A
C482        O483   1.263       .  A
C482        C508   1.472   1_556  S
O483       Al485   1.919       .  S
O484        C486   1.260       .  A
O484       Al485   1.895       .  S
Al485       O493   1.900       .  S
Al485       O495   1.904       .  S
Al485       O494   1.792       .  S
C486        O499   1.259       .  A
C486        C530   1.461       .  S
O487        C497   1.259       .  A
O487       Al489   1.898       .  S
O488        C501   1.257       .  A
O488       Al498   1.890       .  S
Al489       O502   1.899       .  S
Al489       O499   1.898       .  S
Al489       O494   1.798       .  S
O490        C497   1.260       .  A
O490       Al498   1.908       .  S
O491        C500   1.259       .  A
O491       Al498   1.900       .  S
O492       Al498   1.901       .  S
O493        C500   1.257       .  A
O494       Al498   1.792       .  S
O495        C496   1.260       .  A
C496        C965   1.482       .  S
C500       C2021   1.487       .  S
C501        O502   1.260       .  A
C501        C898   1.486       .  S
O503        C518   1.258       .  A
O503       Al511   1.897       .  S
C504        O514   1.259       .  A
C504        O505   1.260       .  A
C504        C552   1.464       .  S
O505       Al507   1.908       .  S
O506        C508   1.260       .  A
O506       Al507   1.900       .  S
Al507       O515   1.895       .  S
Al507       O517   1.903       .  S
Al507       O516   1.795       .  S
C508        O521   1.263       .  A
O509        C519   1.260       .  A
O509       Al511   1.897       .  S
O510        C523   1.257       .  A
O510       Al520   1.898       .  S
Al511       O524   1.906       .  S
Al511       O521   1.919       .  S
Al511       O516   1.789       .  S
O512        C519   1.261       .  A
O512       Al520   1.911       .  S
O513        C522   1.259       .  A
O513       Al520   1.902       .  S
O514       Al520   1.893       .  S
O515        C522   1.259       .  A
O516       Al520   1.796       .  S
O517        C518   1.260       .  A
C518       C2005   1.485       .  S
C522       C1586   1.477       .  S
C523        O524   1.261       .  A
C523        C882   1.484       .  S
O525        C540   1.259       .  A
O525       Al533   1.891       .  S
C526        O536   1.259       .  A
C526        O527   1.262       .  A
O527       Al529   1.913       .  S
O528        C530   1.259       .  A
O528       Al529   1.892       .  S
Al529       O537   1.906       .  S
Al529       O539   1.910       .  S
Al529       O538   1.795       .  S
C530        O543   1.260       .  A
O531        C541   1.260       .  A
O531       Al533   1.900       .  S
O532        C545   1.260       .  A
O532       Al542   1.896       .  S
Al533       O546   1.905       .  S
Al533       O543   1.905       .  S
Al533       O538   1.791       .  S
O534        C541   1.261       .  A
O534       Al542   1.913       .  S
O535        C544   1.262       .  A
O535       Al542   1.899       .  S
O536       Al542   1.891       .  S
O537        C544   1.258       .  A
O538       Al542   1.786       .  S
O539        C540   1.260       .  A
C540        C946   1.483       .  S
C541        C548   1.469   1_556  S
C544        C981   1.490       .  S
C545        O546   1.259       .  A
C545       C1413   1.481       .  S
O547        C562   1.260       .  A
O547       Al555   1.894       .  S
C548        O558   1.262       .  A
C548        O549   1.262       .  A
O549       Al551   1.913       .  S
O550        C552   1.259       .  A
O550       Al551   1.896       .  S
Al551       O559   1.892       .  S
Al551       O561   1.906       .  S
Al551       O560   1.789       .  S
C552        O565   1.260       .  A
O553        C563   1.259       .  A
O553       Al555   1.900       .  S
O554        C567   1.257       .  A
O554       Al564   1.895       .  S
Al555       O568   1.908       .  S
Al555       O565   1.906       .  S
Al555       O560   1.790       .  S
O556        C563   1.265       .  A
O556       Al564   1.919       .  S
O557        C566   1.260       .  A
O557       Al564   1.905       .  S
O558       Al564   1.901       .  S
O559        C566   1.257       .  A
O560       Al564   1.789       .  S
O561        C562   1.261       .  A
C562       C1554   1.477       .  S
C566       C1394   1.476       .  S
C567        O568   1.262       .  A
C567       C1429   1.484       .  S
C569        C570   1.362       .  D
C569        C850   1.502       .  S
C569        C866   1.498       .  S
C570        C901   1.491       .  S
C570        C917   1.503       .  S
C571        C572   1.357   1_455  D
C571       C1621   1.499       .  S
C571       C1685   1.493   1_455  S
C572        C821   1.493   1_655  S
C572        C837   1.500       .  S
C573        C574   1.358       .  D
C573       C1093   1.489       .  S
C573       C1138   1.490       .  S
C574        C786   1.500       .  S
C574        C802   1.501       .  S
C575        C576   1.361       .  D
C575        C885   1.504       .  S
C575        C930   1.495       .  S
C576        C754   1.493       .  S
C576        C773   1.501       .  S
O577        C592   1.262       .  A
O577       Al585   1.916       .  S
C578        O588   1.266       .  A
C578        O579   1.259       .  A
C578        C692   1.469       .  S
O579       Al581   1.897       .  S
O580        C582   1.262       .  A
O580       Al581   1.910       .  S
Al581       O589   1.913       .  S
Al581       O591   1.889       .  S
Al581       O590   1.784       .  S
C582        O595   1.259       .  A
C582        C604   1.462   1_455  S
O583        C593   1.264       .  A
O583       Al585   1.920       .  S
O584        C597   1.260       .  A
O584       Al594   1.910       .  S
Al585       O598   1.884       .  S
Al585       O595   1.892       .  S
Al585       O590   1.785       .  S
O586        C593   1.262       .  A
O586       Al594   1.900       .  S
O587        C596   1.257       .  A
O587       Al594   1.892       .  S
O588       Al594   1.923       .  S
O589        C596   1.263       .  A
O590       Al594   1.787       .  S
O591        C592   1.259       .  A
C592       C2133   1.477       .  S
C593        C644   1.470       .  S
C596       C1477   1.482       .  S
C597        O598   1.257       .  A
C597       C1269   1.473       .  S
O599        C614   1.260       .  A
O599       Al607   1.898       .  S
C600        O610   1.259       .  A
C600        O601   1.259       .  A
C600        C622   1.469       .  S
O601       Al603   1.899       .  S
O602        C604   1.261       .  A
O602       Al603   1.909       .  S
Al603       O611   1.911       .  S
Al603       O613   1.896       .  S
Al603       O612   1.793       .  S
C604        O617   1.257       .  A
O605        C615   1.263       .  A
O605       Al607   1.917       .  S
O606        C619   1.260       .  A
O606       Al616   1.908       .  S
Al607       O620   1.899       .  S
Al607       O617   1.885       .  S
Al607       O612   1.791       .  S
O608        C615   1.261       .  A
O608       Al616   1.888       .  S
O609        C618   1.262       .  A
O609       Al616   1.894       .  S
O610       Al616   1.915       .  S
O611        C618   1.262       .  A
O612       Al616   1.789       .  S
O613        C614   1.257       .  A
C614       C2149   1.475       .  S
C615        C666   1.461       .  S
C618       C1045   1.482       .  S
C619        O620   1.256       .  A
C619        C770   1.490       .  S
O621        C636   1.259       .  A
O621       Al629   1.884       .  S
C622        O632   1.260       .  A
C622        O623   1.265       .  A
O623       Al625   1.914       .  S
O624        C626   1.262       .  A
O624       Al625   1.912       .  S
Al625       O633   1.896       .  S
Al625       O635   1.913       .  S
Al625       O634   1.797       .  S
C626        O639   1.259       .  A
C626        C710   1.470       .  S
O627        C637   1.256       .  A
O627       Al629   1.890       .  S
O628        C641   1.258       .  A
O628       Al638   1.898       .  S
Al629       O642   1.903       .  S
Al629       O639   1.902       .  S
Al629       O634   1.791       .  S
O630        C637   1.259       .  A
O630       Al638   1.899       .  S
O631        C640   1.258       .  A
O631       Al638   1.899       .  S
O632       Al638   1.898       .  S
O633        C640   1.258       .  A
O634       Al638   1.793       .  S
O635        C636   1.260       .  A
C636        C869   1.490       .  S
C637        C648   1.460   1_655  S
C640       C1061   1.482       .  S
C641        O642   1.261       .  A
C641       C1765   1.489       .  S
O643        C658   1.259       .  A
O643       Al651   1.897       .  S
C644        O654   1.266       .  A
C644        O645   1.262       .  A
O645       Al647   1.897       .  S
O646        C648   1.258       .  A
O646       Al647   1.905       .  S
Al647       O655   1.887       .  S
Al647       O657   1.908       .  S
Al647       O656   1.796       .  S
C648        O661   1.258       .  A
O649        C659   1.258       .  A
O649       Al651   1.898       .  S
O650        C663   1.264       .  A
O650       Al660   1.912       .  S
Al651       O664   1.894       .  S
Al651       O661   1.891       .  S
Al651       O656   1.792       .  S
O652        C659   1.260       .  A
O652       Al660   1.902       .  S
O653        C662   1.259       .  A
O653       Al660   1.911       .  S
O654       Al660   1.923       .  S
O655        C662   1.255       .  A
O656       Al660   1.793       .  S
O657        C658   1.261       .  A
C658       C1749   1.482       .  S
C659        C736   1.466       .  S
C662       C1285   1.482       .  S
C663        O664   1.257       .  A
C663       C1029   1.487       .  S
O665        C680   1.259       .  A
O665       Al673   1.899       .  S
C666        O676   1.254       .  A
C666        O667   1.260       .  A
O667       Al669   1.909       .  S
O668        C670   1.260       .  A
O668       Al669   1.895       .  S
Al669       O677   1.882       .  S
Al669       O679   1.899       .  S
Al669       O678   1.792       .  S
C670        O683   1.264       .  A
C670        C688   1.474   1_655  S
O671        C681   1.260       .  A
O671       Al673   1.893       .  S
O672        C685   1.251       .  A
O672       Al682   1.869       .  S
Al673       O686   1.921       .  S
Al673       O683   1.921       .  S
Al673       O678   1.794       .  S
O674        C681   1.263       .  A
O674       Al682   1.909       .  S
O675        C684   1.260       .  A
O675       Al682   1.910       .  S
O676       Al682   1.880       .  S
O677        C684   1.260       .  A
O678       Al682   1.796       .  S
O679        C680   1.257       .  A
C680        C834   1.492       .  S
C681        C714   1.464       .  S
C684        C757   1.488       .  S
C685        O686   1.264       .  A
C685        C789   1.488       .  S
O687        C702   1.260       .  A
O687       Al695   1.895       .  S
C688        O698   1.262       .  A
C688        O689   1.264       .  A
O689       Al691   1.911       .  S
O690        C692   1.262       .  A
O690       Al691   1.911       .  S
Al691       O699   1.898       .  S
Al691       O701   1.913       .  S
Al691       O700   1.781       .  S
C692        O705   1.259       .  A
O693        C703   1.262       .  A
O693       Al695   1.897       .  S
O694        C707   1.259       .  A
O694       Al704   1.904       .  S
Al695       O708   1.900       .  S
Al695       O705   1.905       .  S
Al695       O700   1.786       .  S
O696        C703   1.263       .  A
O696       Al704   1.904       .  S
O697        C706   1.260       .  A
O697       Al704   1.899       .  S
O698       Al704   1.912       .  S
O699        C706   1.259       .  A
O700       Al704   1.786       .  S
O701        C702   1.265       .  A
C702       C1442   1.485       .  S
C703        C732   1.459       .  S
C706        C818   1.481       .  S
C707        O708   1.259       .  A
C707       C1509   1.487       .  S
O709        C724   1.259       .  A
O709       Al717   1.886       .  S
C710        O720   1.264       .  A
C710        O711   1.263       .  A
O711       Al713   1.908       .  S
O712        C714   1.258       .  A
O712       Al713   1.905       .  S
Al713       O721   1.895       .  S
Al713       O723   1.921       .  S
Al713       O722   1.788       .  S
C714        O727   1.259       .  A
O715        C725   1.261       .  A
O715       Al717   1.902       .  S
O716        C729   1.264       .  A
O716       Al726   1.918       .  S
Al717       O730   1.895       .  S
Al717       O727   1.897       .  S
Al717       O722   1.782       .  S
O718        C725   1.264       .  A
O718       Al726   1.921       .  S
O719        C728   1.261       .  A
O719       Al726   1.909       .  S
O720       Al726   1.911       .  S
O721        C728   1.258       .  A
O722       Al726   1.784       .  S
O723        C724   1.264       .  A
C724        C805   1.479       .  S
C725        C747   1.470   1_655  S
C728        C853   1.480       .  S
C729        O730   1.258       .  A
C729       C2277   1.492       .  S
O731        C746   1.261       .  A
O731       Al739   1.896       .  S
C732        O742   1.261       .  A
C732        O733   1.258       .  A
O733       Al735   1.892       .  S
O734        C736   1.264       .  A
O734       Al735   1.919       .  S
Al735       O743   1.917       .  S
Al735       O745   1.903       .  S
Al735       O744   1.788       .  S
C736        O749   1.262       .  A
O737        C747   1.262       .  A
O737       Al739   1.916       .  S
O738        C751   1.262       .  A
O738       Al748   1.917       .  S
Al739       O752   1.895       .  S
Al739       O749   1.896       .  S
Al739       O744   1.779       .  S
O740        C747   1.261       .  A
O740       Al748   1.906       .  S
O741        C750   1.258       .  A
O741       Al748   1.889       .  S
O742       Al748   1.905       .  S
O743        C750   1.265       .  A
O744       Al748   1.785       .  S
O745        C746   1.259       .  A
C746       C1013   1.481       .  S
C750       C1541   1.480       .  S
C751        O752   1.261       .  A
C751       C2261   1.482       .  S
C753        C754   1.406       .  A
C753        C758   1.410       .  A
C753        H760   1.080       .  S
C754        C755   1.415       .  A
C755        C756   1.392       .  A
C755        C762   1.504       .  S
C756        C757   1.404       .  A
C756        H761   1.085       .  S
C757        C758   1.417       .  A
C758        C759   1.506       .  S
C759        H763   1.111       .  S
C759        H764   1.110       .  S
C759        H765   1.110       .  S
C762        H766   1.098       .  S
C762        H767   1.110       .  S
C762        H768   1.111       .  S
C769        C770   1.405       .  A
C769        C774   1.403       .  A
C769        H776   1.084       .  S
C770        C771   1.418       .  A
C771        C772   1.407       .  A
C771        C778   1.508       .  S
C772        C773   1.404       .  A
C772        H777   1.077       .  S
C773        C774   1.414       .  A
C774        C775   1.505       .  S
C775        H779   1.111       .  S
C775        H780   1.103       .  S
C775        H781   1.107       .  S
C778        H782   1.110       .  S
C778        H783   1.110       .  S
C778        H784   1.111       .  S
C785        C786   1.402       .  A
C785        C790   1.399       .  A
C785        H792   1.084       .  S
C786        C787   1.415       .  A
C787        C788   1.406       .  A
C787        C794   1.499       .  S
C788        C789   1.403       .  A
C788        H793   1.083       .  S
C789        C790   1.425       .  A
C790        C791   1.512       .  S
C791        H795   1.111       .  S
C791        H796   1.110       .  S
C791        H797   1.112       .  S
C794        H798   1.108       .  S
C794        H799   1.099       .  S
C794        H800   1.110       .  S
C801        C802   1.408       .  A
C801        C806   1.408       .  A
C801        H808   1.079       .  S
C802        C803   1.413       .  A
C803        C804   1.397       .  A
C803        C810   1.499       .  S
C804        C805   1.400       .  A
C804        H809   1.084       .  S
C805        C806   1.414       .  A
C806        C807   1.507       .  S
C807        H811   1.111       .  S
C807        H812   1.109       .  S
C807        H813   1.111       .  S
C810        H814   1.110       .  S
C810        H815   1.100       .  S
C810        H816   1.111       .  S
C817        C818   1.405       .  A
C817        C822   1.402       .  A
C817        H824   1.085       .  S
C818        C819   1.414       .  A
C819        C820   1.401       .  A
C819        C826   1.508       .  S
C820        C821   1.405       .  A
C820        H825   1.082       .  S
C821        C822   1.412       .  A
C822        C823   1.501       .  S
C823        H827   1.110       .  S
C823        H828   1.110       .  S
C823        H829   1.103       .  S
C826        H830   1.110       .  S
C826        H831   1.111       .  S
C826        H832   1.111       .  S
C833        C834   1.406       .  A
C833        C838   1.402       .  A
C833        H840   1.084       .  S
C834        C835   1.419       .  A
C835        C836   1.406       .  A
C835        C842   1.508       .  S
C836        C837   1.404       .  A
C836        H841   1.080       .  S
C837        C838   1.413       .  A
C838        C839   1.504       .  S
C839        H843   1.111       .  S
C839        H844   1.100       .  S
C839        H845   1.106       .  S
C842        H846   1.110       .  S
C842        H847   1.110       .  S
C842        H848   1.111       .  S
C849        C850   1.407       .  A
C849        C854   1.404       .  A
C849        H856   1.083       .  S
C850        C851   1.416       .  A
C851        C852   1.404       .  A
C851        C858   1.502       .  S
C852        C853   1.401       .  A
C852        H857   1.084       .  S
C853        C854   1.414       .  A
C854        C855   1.508       .  S
C855        H859   1.111       .  S
C855        H860   1.110       .  S
C855        H861   1.111       .  S
C858        H862   1.107       .  S
C858        H863   1.100       .  S
C858        H864   1.111       .  S
C865        C866   1.408       .  A
C865        C870   1.411       .  A
C865        H872   1.082       .  S
C866        C867   1.413       .  A
C867        C868   1.392       .  A
C867        C874   1.498       .  S
C868        C869   1.403       .  A
C868        H873   1.084       .  S
C869        C870   1.417       .  A
C870        C871   1.506       .  S
C871        H875   1.111       .  S
C871        H876   1.110       .  S
C871        H877   1.111       .  S
C874        H878   1.110       .  S
C874        H879   1.091       .  S
C874        H880   1.110       .  S
C881        C882   1.401       .  A
C881        C886   1.403       .  A
C881        H888   1.084       .  S
C882        C883   1.415       .  A
C883        C884   1.407       .  A
C883        C890   1.507       .  S
C884        C885   1.408       .  A
C884        H889   1.082       .  S
C885        C886   1.414       .  A
C886        C887   1.499       .  S
C887        H891   1.111       .  S
C887        H892   1.108       .  S
C887        H893   1.099       .  S
C890        H894   1.109       .  S
C890        H895   1.111       .  S
C890        H896   1.111       .  S
C897        C898   1.409       .  A
C897        C902   1.403       .  A
C897        H904   1.084       .  S
C898        C899   1.417       .  A
C899        C900   1.399       .  A
C899        C906   1.509       .  S
C900        C901   1.401       .  A
C900        H905   1.076       .  S
C901        C902   1.410       .  A
C902        C903   1.506       .  S
C903        H907   1.111       .  S
C903        H908   1.109       .  S
C903        H909   1.102       .  S
C906        H910   1.111       .  S
C906        H911   1.110       .  S
C906        H912   1.111       .  S
C913        C914   1.405       .  A
C913        C918   1.395       .  A
C913        H920   1.084       .  S
C914        C915   1.416       .  A
C915        C916   1.414       .  A
C915        C922   1.505       .  S
C916        C917   1.409       .  A
C916        H921   1.079       .  S
C917        C918   1.416       .  A
C918        C919   1.503       .  S
C919        H923   1.111       .  S
C919        H924   1.095       .  S
C919        H925   1.110       .  S
C922        H926   1.111       .  S
C922        H927   1.110       .  S
C922        H928   1.111       .  S
C929        C930   1.403       .  A
C929        C934   1.401       .  A
C929        H936   1.079       .  S
C930        C931   1.413       .  A
C931        C932   1.400       .  A
C931        C938   1.499       .  S
C932        C933   1.403       .  A
C932        H937   1.084       .  S
C933        C934   1.418       .  A
C934        C935   1.509       .  S
C935        H939   1.111       .  S
C935        H940   1.109       .  S
C935        H941   1.111       .  S
C938        H942   1.110       .  S
C938        H943   1.100       .  S
C938        H944   1.110       .  S
C945        C946   1.399       .  A
C945        C950   1.395       .  A
C945        H952   1.084       .  S
C946        C947   1.418       .  A
C947        C948   1.408       .  A
C947        C954   1.505       .  S
C948        C949   1.405       .  A
C948        H953   1.084       .  S
C949        C950   1.415       .  A
C950        C951   1.499       .  S
C951        H955   1.110       .  S
C951        H956   1.110       .  S
C951        H957   1.097       .  S
C954        H958   1.109       .  S
C954        H959   1.109       .  S
C954        H960   1.111       .  S
C961        C962   1.408       .  A
C961        C966   1.405       .  A
C961        H968   1.083       .  S
C962        C963   1.415       .  A
C963        C964   1.405       .  A
C963        C970   1.501       .  S
C964        C965   1.403       .  A
C964        H969   1.084       .  S
C965        C966   1.414       .  A
C966        C967   1.507       .  S
C967        H971   1.111       .  S
C967        H972   1.110       .  S
C967        H973   1.111       .  S
C970        H974   1.108       .  S
C970        H975   1.097       .  S
C970        H976   1.111       .  S
C977        C978   1.407       .  A
C977        C982   1.412       .  A
C977        H984   1.080       .  S
C978        C979   1.420       .  A
C979        C980   1.397       .  A
C979        C986   1.501       .  S
C980        C981   1.399       .  A
C980        H985   1.084       .  S
C981        C982   1.417       .  A
C982        C983   1.505       .  S
C983        H987   1.111       .  S
C983        H988   1.106       .  S
C983        H989   1.111       .  S
C986        H990   1.105       .  S
C986        H991   1.100       .  S
C986        H992   1.111       .  S
C993        C994   1.403       .  A
C993        C998   1.410       .  A
C993       H1000   1.080       .  S
C994        C995   1.418       .  A
C995        C996   1.394       .  A
C995       C1002   1.504       .  S
C996        C997   1.403       .  A
C996       H1001   1.085       .  S
C997        C998   1.426       .  A
C998        C999   1.511       .  S
C999       H1003   1.112       .  S
C999       H1004   1.110       .  S
C999       H1005   1.098       .  S
C1002      H1006   1.110       .  S
C1002      H1007   1.098       .  S
C1002      H1008   1.110       .  S
C1009      C1010   1.407       .  A
C1009      C1014   1.408       .  A
C1009      H1016   1.080       .  S
C1010      C1011   1.419       .  A
C1011      C1012   1.395       .  A
C1011      C1018   1.500       .  S
C1012      C1013   1.399       .  A
C1012      H1017   1.085       .  S
C1013      C1014   1.414       .  A
C1014      C1015   1.506       .  S
C1015      H1019   1.111       .  S
C1015      H1020   1.111       .  S
C1015      H1021   1.110       .  S
C1018      H1022   1.096       .  S
C1018      H1023   1.110       .  S
C1018      H1024   1.111       .  S
C1025      C1026   1.406       .  A
C1025      C1030   1.407       .  A
C1025      H1032   1.077       .  S
C1026      C1027   1.418       .  A
C1027      C1028   1.402       .  A
C1027      C1034   1.496       .  S
C1028      C1029   1.399       .  A
C1028      H1033   1.084       .  S
C1029      C1030   1.417       .  A
C1030      C1031   1.507       .  S
C1031      H1035   1.111       .  S
C1031      H1036   1.105       .  S
C1031      H1037   1.111       .  S
C1034      H1038   1.101       .  S
C1034      H1039   1.107       .  S
C1034      H1040   1.111       .  S
C1041      C1042   1.405       .  A
C1041      C1046   1.408       .  A
C1041      H1048   1.084       .  S
C1042      C1043   1.415       .  A
C1043      C1044   1.396       .  A
C1043      C1050   1.503       .  S
C1044      C1045   1.400       .  A
C1044      H1049   1.084       .  S
C1045      C1046   1.418       .  A
C1046      C1047   1.508       .  S
C1047      H1051   1.111       .  S
C1047      H1052   1.110       .  S
C1047      H1053   1.109       .  S
C1050      H1054   1.110       .  S
C1050      H1055   1.101       .  S
C1050      H1056   1.110       .  S
C1057      C1058   1.406       .  A
C1057      C1062   1.400       .  A
C1057      H1064   1.083       .  S
C1058      C1059   1.412       .  A
C1059      C1060   1.404       .  A
C1059      C1066   1.503       .  S
C1060      C1061   1.407       .  A
C1060      H1065   1.084       .  S
C1061      C1062   1.414       .  A
C1062      C1063   1.508       .  S
C1063      H1067   1.111       .  S
C1063      H1068   1.111       .  S
C1063      H1069   1.109       .  S
C1066      H1070   1.105       .  S
C1066      H1071   1.110       .  S
C1066      H1072   1.109       .  S
C1073      C1074   1.408       .  A
C1073      C1078   1.405       .  A
C1073      H1080   1.082       .  S
C1074      C1075   1.416       .  A
C1075      C1076   1.406       .  A
C1075      C1082   1.502       .  S
C1076      C1077   1.403       .  A
C1076      H1081   1.084       .  S
C1077      C1078   1.414       .  A
C1078      C1079   1.508       .  S
C1079      H1083   1.111       .  S
C1079      H1084   1.110       .  S
C1079      H1085   1.111       .  S
C1082      H1086   1.108       .  S
C1082      H1087   1.097       .  S
C1082      H1088   1.111       .  S
C1089      C1090   1.405       .  A
C1089      C1094   1.401       .  A
C1089      H1096   1.084       .  S
C1090      C1091   1.422       .  A
C1091      C1092   1.404       .  A
C1091      C1098   1.503       .  S
C1092      C1093   1.398       .  A
C1092      H1097   1.081       .  S
C1093      C1094   1.415       .  A
C1094      C1095   1.506       .  S
C1095      H1099   1.110       .  S
C1095      H1100   1.107       .  S
C1095      H1101   1.110       .  S
C1098      H1102   1.111       .  S
C1098      H1103   1.105       .  S
C1098      H1104   1.111       .  S
C1105      C1106   1.404       .  A
C1105      C1110   1.392       .  A
C1105      H1112   1.084       .  S
C1106      C1107   1.418       .  A
C1107      C1108   1.412       .  A
C1107      C1114   1.505       .  S
C1108      C1109   1.408       .  A
C1108      H1113   1.083       .  S
C1109      C1110   1.412       .  A
C1110      C1111   1.500       .  S
C1111      H1115   1.110       .  S
C1111      H1116   1.111       .  S
C1111      H1117   1.096       .  S
C1114      H1118   1.110       .  S
C1114      H1119   1.110       .  S
C1114      H1120   1.111       .  S
C1121      C1122   1.405       .  A
C1121      C1126   1.406       .  A
C1121      H1128   1.084       .  S
C1122      C1123   1.419       .  A
C1123      C1124   1.397       .  A
C1123      C1130   1.512       .  S
C1124      C1125   1.400       .  A
C1124      H1129   1.079       .  S
C1125      C1126   1.414       .  A
C1126      C1127   1.505       .  S
C1127      H1131   1.111       .  S
C1127      H1132   1.105       .  S
C1127      H1133   1.108       .  S
C1130      H1134   1.100       .  S
C1130      H1135   1.112       .  S
C1130      H1136   1.110       .  S
C1137      C1138   1.403       .  A
C1137      C1142   1.407       .  A
C1137      H1144   1.082       .  S
C1138      C1139   1.419       .  A
C1139      C1140   1.393       .  A
C1139      C1146   1.503       .  S
C1140      C1141   1.397       .  A
C1140      H1145   1.084       .  S
C1141      C1142   1.420       .  A
C1142      C1143   1.507       .  S
C1143      H1147   1.111       .  S
C1143      H1148   1.109       .  S
C1143      H1149   1.109       .  S
C1146      H1150   1.096       .  S
C1146      H1151   1.110       .  S
C1146      H1152   1.111       .  S
C1153      C1154   1.406       .  A
C1153      C1158   1.407       .  A
C1153      H1160   1.083       .  S
C1154      C1155   1.424       .  A
C1155      C1156   1.402       .  A
C1155      C1162   1.510       .  S
C1156      C1157   1.400       .  A
C1156      H1161   1.080       .  S
C1157      C1158   1.414       .  A
C1158      C1159   1.501       .  S
C1159      H1163   1.111       .  S
C1159      H1164   1.102       .  S
C1159      H1165   1.109       .  S
C1162      H1166   1.110       .  S
C1162      H1167   1.108       .  S
C1162      H1168   1.111       .  S
C1169      C1170   1.406       .  A
C1169      C1174   1.404       .  A
C1169      H1176   1.079       .  S
C1170      C1171   1.412       .  A
C1171      C1172   1.397       .  A
C1171      C1178   1.500       .  S
C1172      C1173   1.405       .  A
C1172      H1177   1.085       .  S
C1173      C1174   1.415       .  A
C1174      C1175   1.507       .  S
C1175      H1179   1.111       .  S
C1175      H1180   1.110       .  S
C1175      H1181   1.111       .  S
C1178      H1182   1.111       .  S
C1178      H1183   1.110       .  S
C1178      H1184   1.098       .  S
C1185      C1186   1.405       .  A
C1185      C1190   1.402       .  A
C1185      H1192   1.084       .  S
C1186      C1187   1.419       .  A
C1187      C1188   1.406       .  A
C1187      C1194   1.508       .  S
C1188      C1189   1.403       .  A
C1188      H1193   1.077       .  S
C1189      C1190   1.414       .  A
C1190      C1191   1.505       .  S
C1191      H1195   1.111       .  S
C1191      H1196   1.103       .  S
C1191      H1197   1.107       .  S
C1194      H1198   1.110       .  S
C1194      H1199   1.110       .  S
C1194      H1200   1.111       .  S
C1201      C1202   1.407       .  A
C1201      C1206   1.407       .  A
C1201      H1208   1.082       .  S
C1202      C1203   1.414       .  A
C1203      C1204   1.404       .  A
C1203      C1210   1.499       .  S
C1204      C1205   1.403       .  A
C1204      H1209   1.084       .  S
C1205      C1206   1.416       .  A
C1206      C1207   1.507       .  S
C1207      H1211   1.111       .  S
C1207      H1212   1.110       .  S
C1207      H1213   1.111       .  S
C1210      H1214   1.108       .  S
C1210      H1215   1.099       .  S
C1210      H1216   1.111       .  S
C1217      C1218   1.404       .  A
C1217      C1222   1.407       .  A
C1217      H1224   1.081       .  S
C1218      C1219   1.418       .  A
C1219      C1220   1.396       .  A
C1219      C1226   1.503       .  S
C1220      C1221   1.399       .  A
C1220      H1225   1.084       .  S
C1221      C1222   1.418       .  A
C1222      C1223   1.508       .  S
C1223      H1227   1.111       .  S
C1223      H1228   1.109       .  S
C1223      H1229   1.110       .  S
C1226      H1230   1.110       .  S
C1226      H1231   1.099       .  S
C1226      H1232   1.111       .  S
C1233      C1234   1.407       .  A
C1233      C1238   1.399       .  A
C1233      H1240   1.084       .  S
C1234      C1235   1.417       .  A
C1235      C1236   1.411       .  A
C1235      C1242   1.506       .  S
C1236      C1237   1.409       .  A
C1236      H1241   1.083       .  S
C1237      C1238   1.411       .  A
C1238      C1239   1.499       .  S
C1239      H1243   1.109       .  S
C1239      H1244   1.098       .  S
C1239      H1245   1.110       .  S
C1242      H1246   1.110       .  S
C1242      H1247   1.110       .  S
C1242      H1248   1.111       .  S
C1249      C1250   1.399       .  A
C1249      C1254   1.399       .  A
C1249      H1256   1.081       .  S
C1250      C1251   1.415       .  A
C1251      C1252   1.399       .  A
C1251      C1258   1.500       .  S
C1252      C1253   1.402       .  A
C1252      H1257   1.084       .  S
C1253      C1254   1.423       .  A
C1254      C1255   1.508       .  S
C1255      H1259   1.111       .  S
C1255      H1260   1.107       .  S
C1255      H1261   1.110       .  S
C1258      H1262   1.096       .  S
C1258      H1263   1.110       .  S
C1258      H1264   1.109       .  S
C1265      C1266   1.405       .  A
C1265      C1270   1.406       .  A
C1265      H1272   1.080       .  S
C1266      C1267   1.419       .  A
C1267      C1268   1.394       .  A
C1267      C1274   1.503       .  S
C1268      C1269   1.397       .  A
C1268      H1273   1.085       .  S
C1269      C1270   1.413       .  A
C1270      C1271   1.506       .  S
C1271      H1275   1.111       .  S
C1271      H1276   1.110       .  S
C1271      H1277   1.109       .  S
C1274      H1278   1.095       .  S
C1274      H1279   1.111       .  S
C1274      H1280   1.110       .  S
C1281      C1282   1.401       .  A
C1281      C1286   1.403       .  A
C1281      H1288   1.076       .  S
C1282      C1283   1.417       .  A
C1283      C1284   1.406       .  A
C1283      C1290   1.505       .  S
C1284      C1285   1.402       .  A
C1284      H1289   1.084       .  S
C1285      C1286   1.417       .  A
C1286      C1287   1.509       .  S
C1287      H1291   1.111       .  S
C1287      H1292   1.110       .  S
C1287      H1293   1.108       .  S
C1290      H1294   1.108       .  S
C1290      H1295   1.101       .  S
C1290      H1296   1.111       .  S
C1297      C1298   1.404       .  A
C1297      C1302   1.404       .  A
C1297      H1304   1.077       .  S
C1298      C1299   1.415       .  A
C1299      C1300   1.403       .  A
C1299      C1306   1.500       .  S
C1300      C1301   1.402       .  A
C1300      H1305   1.084       .  S
C1301      C1302   1.417       .  A
C1302      C1303   1.509       .  S
C1303      H1307   1.111       .  S
C1303      H1308   1.109       .  S
C1303      H1309   1.110       .  S
C1306      H1310   1.110       .  S
C1306      H1311   1.104       .  S
C1306      H1312   1.110       .  S
C1313      C1314   1.405       .  A
C1313      C1318   1.405       .  A
C1313      H1320   1.080       .  S
C1314      C1315   1.413       .  A
C1315      C1316   1.400       .  A
C1315      C1322   1.502       .  S
C1316      C1317   1.404       .  A
C1316      H1321   1.085       .  S
C1317      C1318   1.416       .  A
C1318      C1319   1.505       .  S
C1319      H1323   1.111       .  S
C1319      H1324   1.110       .  S
C1319      H1325   1.106       .  S
C1322      H1326   1.110       .  S
C1322      H1327   1.101       .  S
C1322      H1328   1.110       .  S
C1329      C1330   1.404       .  A
C1329      C1334   1.400       .  A
C1329      H1336   1.082       .  S
C1330      C1331   1.415       .  A
C1331      C1332   1.403       .  A
C1331      C1338   1.503       .  S
C1332      C1333   1.402       .  A
C1332      H1337   1.084       .  S
C1333      C1334   1.415       .  A
C1334      C1335   1.509       .  S
C1335      H1339   1.111       .  S
C1335      H1340   1.110       .  S
C1335      H1341   1.111       .  S
C1338      H1342   1.107       .  S
C1338      H1343   1.100       .  S
C1338      H1344   1.111       .  S
C1345      C1346   1.401       .  A
C1345      C1350   1.398       .  A
C1345      H1352   1.082       .  S
C1346      C1347   1.413       .  A
C1347      C1348   1.406       .  A
C1347      C1354   1.501       .  S
C1348      C1349   1.406       .  A
C1348      H1353   1.084       .  S
C1349      C1350   1.420       .  A
C1350      C1351   1.510       .  S
C1351      H1355   1.111       .  S
C1351      H1356   1.110       .  S
C1351      H1357   1.109       .  S
C1354      H1358   1.110       .  S
C1354      H1359   1.105       .  S
C1354      H1360   1.109       .  S
C1361      C1362   1.403       .  A
C1361      C1366   1.406       .  A
C1361      H1368   1.084       .  S
C1362      C1363   1.412       .  A
C1363      C1364   1.401       .  A
C1363      C1370   1.508       .  S
C1364      C1365   1.406       .  A
C1364      H1369   1.082       .  S
C1365      C1366   1.414       .  A
C1366      C1367   1.504       .  S
C1367      H1371   1.111       .  S
C1367      H1372   1.109       .  S
C1367      H1373   1.101       .  S
C1370      H1374   1.110       .  S
C1370      H1375   1.111       .  S
C1370      H1376   1.111       .  S
C1377      C1378   1.403       .  A
C1377      C1382   1.396       .  A
C1377      H1384   1.084       .  S
C1378      C1379   1.418       .  A
C1379      C1380   1.413       .  A
C1379      C1386   1.505       .  S
C1380      C1381   1.409       .  A
C1380      H1385   1.083       .  S
C1381      C1382   1.415       .  A
C1382      C1383   1.502       .  S
C1383      H1387   1.111       .  S
C1383      H1388   1.098   1_565  S
C1383      H1389   1.104       .  S
C1386      H1390   1.110       .  S
C1386      H1391   1.111       .  S
C1386      H1392   1.111       .  S
C1393      C1394   1.405       .  A
C1393      C1398   1.406       .  A
C1393      H1400   1.084       .  S
C1394      C1395   1.412       .  A
C1395      C1396   1.400       .  A
C1395      C1402   1.508       .  S
C1396      C1397   1.406       .  A
C1396      H1401   1.083       .  S
C1397      C1398   1.411       .  A
C1398      C1399   1.505       .  S
C1399      H1403   1.110       .  S
C1399      H1404   1.109       .  S
C1399      H1405   1.100       .  S
C1402      H1406   1.110       .  S
C1402      H1407   1.111       .  S
C1402      H1408   1.111       .  S
C1409      C1410   1.405       .  A
C1409      C1414   1.409       .  A
C1409      H1416   1.084       .  S
C1410      C1411   1.415       .  A
C1411      C1412   1.395       .  A
C1411      C1418   1.501       .  S
C1412      C1413   1.399       .  A
C1412      H1417   1.084       .  S
C1413      C1414   1.418       .  A
C1414      C1415   1.508       .  S
C1415      H1419   1.111       .  S
C1415      H1420   1.109       .  S
C1415      H1421   1.110       .  S
C1418      H1422   1.110       .  S
C1418      H1423   1.098       .  S
C1418      H1424   1.110       .  S
C1425      C1426   1.407       .  A
C1425      C1430   1.404       .  A
C1425      H1432   1.079       .  S
C1426      C1427   1.415       .  A
C1427      C1428   1.401       .  A
C1427      C1434   1.501       .  S
C1428      C1429   1.403       .  A
C1428      H1433   1.085       .  S
C1429      C1430   1.415       .  A
C1430      C1431   1.508       .  S
C1431      H1435   1.111       .  S
C1431      H1436   1.110       .  S
C1431      H1437   1.111       .  S
C1434      H1438   1.098       .  S
C1434      H1439   1.110       .  S
C1434      H1440   1.109       .  S
C1441      C1442   1.404       .  A
C1441      C1446   1.401       .  A
C1441      H1448   1.084       .  S
C1442      C1443   1.415       .  A
C1443      C1444   1.403       .  A
C1443      C1450   1.508       .  S
C1444      C1445   1.407       .  A
C1444      H1449   1.078       .  S
C1445      C1446   1.414       .  A
C1446      C1447   1.501       .  S
C1447      H1451   1.110       .  S
C1447      H1452   1.100       .  S
C1447      H1453   1.109       .  S
C1450      H1454   1.110       .  S
C1450      H1455   1.110       .  S
C1450      H1456   1.111       .  S
C1457      C1458   1.407       .  A
C1457      C1462   1.403       .  A
C1457      H1464   1.078       .  S
C1458      C1459   1.414       .  A
C1459      C1460   1.401       .  A
C1459      C1466   1.501       .  S
C1460      C1461   1.404       .  A
C1460      H1465   1.085       .  S
C1461      C1462   1.415       .  A
C1462      C1463   1.508       .  S
C1463      H1467   1.111       .  S
C1463      H1468   1.110       .  S
C1463      H1469   1.110       .  S
C1466      H1470   1.099       .  S
C1466      H1471   1.110       .  S
C1466      H1472   1.109       .  S
C1473      C1474   1.407       .  A
C1473      C1478   1.402       .  A
C1473      H1480   1.079       .  S
C1474      C1475   1.415       .  A
C1475      C1476   1.401       .  A
C1475      C1482   1.501       .  S
C1476      C1477   1.402       .  A
C1476      H1481   1.085       .  S
C1477      C1478   1.414       .  A
C1478      C1479   1.508       .  S
C1479      H1483   1.111       .  S
C1479      H1484   1.111       .  S
C1479      H1485   1.109       .  S
C1482      H1486   1.098       .  S
C1482      H1487   1.110       .  S
C1482      H1488   1.109       .  S
C1489      C1490   1.401       .  A
C1489      C1494   1.403       .  A
C1489      H1496   1.084       .  S
C1490      C1491   1.414       .  A
C1491      C1492   1.403       .  A
C1491      C1498   1.508       .  S
C1492      C1493   1.407       .  A
C1492      H1497   1.081       .  S
C1493      C1494   1.415       .  A
C1494      C1495   1.502       .  S
C1495      H1499   1.111       .  S
C1495      H1500   1.108       .  S
C1495      H1501   1.101       .  S
C1498      H1502   1.110       .  S
C1498      H1503   1.111       .  S
C1498      H1504   1.111       .  S
C1505      C1506   1.405       .  A
C1505      C1510   1.403       .  A
C1505      H1512   1.081       .  S
C1506      C1507   1.411       .  A
C1507      C1508   1.401       .  A
C1507      C1514   1.501       .  S
C1508      C1509   1.407       .  A
C1508      H1513   1.084       .  S
C1509      C1510   1.416       .  A
C1510      C1511   1.507       .  S
C1511      H1515   1.111       .  S
C1511      H1516   1.111       .  S
C1511      H1517   1.110       .  S
C1514      H1518   1.105       .  S
C1514      H1519   1.111       .  S
C1514      H1520   1.110       .  S
C1521      C1522   1.403       .  A
C1521      C1526   1.400       .  A
C1521      H1528   1.080       .  S
C1522      C1523   1.413       .  A
C1523      C1524   1.403       .  A
C1523      C1530   1.501       .  S
C1524      C1525   1.404       .  A
C1524      H1529   1.084       .  S
C1525      C1526   1.417       .  A
C1526      C1527   1.509       .  S
C1527      H1531   1.111       .  S
C1527      H1532   1.109       .  S
C1527      H1533   1.111       .  S
C1530      H1534   1.110       .  S
C1530      H1535   1.105       .  S
C1530      H1536   1.110       .  S
C1537      C1538   1.406       .  A
C1537      C1542   1.403       .  A
C1537      H1544   1.081       .  S
C1538      C1539   1.415       .  A
C1539      C1540   1.403       .  A
C1539      C1546   1.502       .  S
C1540      C1541   1.401       .  A
C1540      H1545   1.084       .  S
C1541      C1542   1.415       .  A
C1542      C1543   1.508       .  S
C1543      H1547   1.111       .  S
C1543      H1548   1.111       .  S
C1543      H1549   1.109       .  S
C1546      H1550   1.101       .  S
C1546      H1551   1.108       .  S
C1546      H1552   1.111       .  S
C1553      C1554   1.399       .  A
C1553      C1558   1.396       .  A
C1553      H1560   1.085       .  S
C1554      C1555   1.416       .  A
C1555      C1556   1.407       .  A
C1555      C1562   1.507       .  S
C1556      C1557   1.402       .  A
C1556      H1561   1.082       .  S
C1557      C1558   1.417       .  A
C1558      C1559   1.506       .  S
C1559      H1563   1.110       .  S
C1559      H1564   1.111       .  S
C1559      H1565   1.105       .  S
C1562      H1566   1.109       .  S
C1562      H1567   1.110       .  S
C1562      H1568   1.111       .  S
C1569      C1570   1.403       .  A
C1569      C1574   1.402       .  A
C1569      H1576   1.078       .  S
C1570      C1571   1.414       .  A
C1571      C1572   1.405       .  A
C1571      C1578   1.504       .  S
C1572      C1573   1.404       .  A
C1572      H1577   1.084       .  S
C1573      C1574   1.414       .  A
C1574      C1575   1.508       .  S
C1575      H1579   1.111       .  S
C1575      H1580   1.110       .  S
C1575      H1581   1.111       .  S
C1578      H1582   1.109       .  S
C1578      H1583   1.100       .  S
C1578      H1584   1.111       .  S
C1585      C1586   1.399       .  A
C1585      C1590   1.397       .  A
C1585      H1592   1.085       .  S
C1586      C1587   1.416       .  A
C1587      C1588   1.407       .  A
C1587      C1594   1.507       .  S
C1588      C1589   1.402       .  A
C1588      H1593   1.082       .  S
C1589      C1590   1.417       .  A
C1590      C1591   1.506       .  S
C1591      H1595   1.111       .  S
C1591      H1596   1.110       .  S
C1591      H1597   1.105       .  S
C1594      H1598   1.109       .  S
C1594      H1599   1.110       .  S
C1594      H1600   1.111       .  S
C1601      C1602   1.405       .  A
C1601      C1606   1.404       .  A
C1601      H1608   1.084       .  S
C1602      C1603   1.415       .  A
C1603      C1604   1.402       .  A
C1603      C1610   1.508       .  S
C1604      C1605   1.402       .  A
C1604      H1609   1.078       .  S
C1605      C1606   1.413       .  A
C1606      C1607   1.504       .  S
C1607      H1611   1.111       .  S
C1607      H1612   1.109       .  S
C1607      H1613   1.101       .  S
C1610      H1614   1.108       .  S
C1610      H1615   1.111       .  S
C1610      H1616   1.111       .  S
C1617      C1618   1.404       .  A
C1617      C1622   1.407       .  A
C1617      H1624   1.084       .  S
C1618      C1619   1.413       .  A
C1619      C1620   1.400       .  A
C1619      C1626   1.509       .  S
C1620      C1621   1.406       .  A
C1620      H1625   1.082       .  S
C1621      C1622   1.414       .  A
C1622      C1623   1.503       .  S
C1623      H1627   1.111       .  S
C1623      H1628   1.109       .  S
C1623      H1629   1.100       .  S
C1626      H1630   1.111       .  S
C1626      H1631   1.111       .  S
C1626      H1632   1.110       .  S
C1633      C1634   1.402       .  A
C1633      C1638   1.400       .  A
C1633      H1640   1.077       .  S
C1634      C1635   1.411       .  A
C1635      C1636   1.406       .  A
C1635      C1642   1.506       .  S
C1636      C1637   1.409       .  A
C1636      H1641   1.084       .  S
C1637      C1638   1.416       .  A
C1638      C1639   1.509       .  S
C1639      H1643   1.111       .  S
C1639      H1644   1.110       .  S
C1639      H1645   1.110       .  S
C1642      H1646   1.109       .  S
C1642      H1647   1.103       .  S
C1642      H1648   1.111       .  S
C1649      C1650   1.406       .  A
C1649      C1654   1.407       .  A
C1649      H1656   1.084       .  S
C1650      C1651   1.417       .  A
C1651      C1652   1.399       .  A
C1651      C1658   1.509       .  S
C1652      C1653   1.400       .  A
C1652      H1657   1.078       .  S
C1653      C1654   1.414       .  A
C1654      C1655   1.506       .  S
C1655      H1659   1.111       .  S
C1655      H1660   1.109       .  S
C1655      H1661   1.104       .  S
C1658      H1662   1.110       .  S
C1658      H1663   1.111       .  S
C1658      H1664   1.111       .  S
C1665      C1666   1.405       .  A
C1665      C1670   1.407       .  A
C1665      H1672   1.083       .  S
C1666      C1667   1.423       .  A
C1667      C1668   1.400       .  A
C1667      C1674   1.507       .  S
C1668      C1669   1.398       .  A
C1668      H1673   1.079       .  S
C1669      C1670   1.414       .  A
C1670      C1671   1.501       .  S
C1671      H1675   1.110       .  S
C1671      H1676   1.109       .  S
C1671      H1677   1.102       .  S
C1674      H1678   1.104       .  S
C1674      H1679   1.110       .  S
C1674      H1680   1.111       .  S
C1681      C1682   1.402       .  A
C1681      C1686   1.400       .  A
C1681      H1688   1.084       .  S
C1682      C1683   1.417       .  A
C1683      C1684   1.402       .  A
C1683      C1690   1.509       .  S
C1684      C1685   1.402       .  A
C1684      H1689   1.079       .  S
C1685      C1686   1.413       .  A
C1686      C1687   1.501       .  S
C1687      H1691   1.110       .  S
C1687      H1692   1.110       .  S
C1687      H1693   1.104       .  S
C1690      H1694   1.109       .  S
C1690      H1695   1.110       .  S
C1690      H1696   1.111       .  S
C1697      C1698   1.405       .  A
C1697      C1702   1.408       .  A
C1697      H1704   1.080       .  S
C1698      C1699   1.413       .  A
C1699      C1700   1.398       .  A
C1699      C1706   1.502       .  S
C1700      C1701   1.406       .  A
C1700      H1705   1.084       .  S
C1701      C1702   1.417       .  A
C1702      C1703   1.505       .  S
C1703      H1707   1.111       .  S
C1703      H1708   1.108       .  S
C1703      H1709   1.110       .  S
C1706      H1710   1.102       .  S
C1706      H1711   1.110       .  S
C1706      H1712   1.111       .  S
C1713      C1714   1.407       .  A
C1713      C1718   1.401       .  A
C1713      H1720   1.082       .  S
C1714      C1715   1.414       .  A
C1715      C1716   1.404       .  A
C1715      C1722   1.503       .  S
C1716      C1717   1.402       .  A
C1716      H1721   1.084       .  S
C1717      C1718   1.413       .  A
C1718      C1719   1.508       .  S
C1719      H1723   1.111       .  S
C1719      H1724   1.110       .  S
C1719      H1725   1.111       .  S
C1722      H1726   1.108       .  S
C1722      H1727   1.100       .  S
C1722      H1728   1.111       .  S
C1729      C1730   1.406       .  A
C1729      C1734   1.408       .  A
C1729      H1736   1.084       .  S
C1730      C1731   1.415       .  A
C1731      C1732   1.397       .  A
C1731      C1738   1.500       .  S
C1732      C1733   1.399       .  A
C1732      H1737   1.084       .  S
C1733      C1734   1.417       .  A
C1734      C1735   1.507       .  S
C1735      H1739   1.111       .  S
C1735      H1740   1.109       .  S
C1735      H1741   1.110       .  S
C1738      H1742   1.110       .  S
C1738      H1743   1.097       .  S
C1738      H1744   1.110   1_655  S
C1745      C1746   1.399       .  A
C1745      C1750   1.398       .  A
C1745      H1752   1.077       .  S
C1746      C1747   1.416       .  A
C1747      C1748   1.405       .  A
C1747      C1754   1.503       .  S
C1748      C1749   1.404       .  A
C1748      H1753   1.084       .  S
C1749      C1750   1.417       .  A
C1750      C1751   1.507       .  S
C1751      H1755   1.111       .  S
C1751      H1756   1.110       .  S
C1751      H1757   1.109       .  S
C1754      H1758   1.106       .  S
C1754      H1759   1.110       .  S
C1754      H1760   1.110       .  S
C1761      C1762   1.401       .  A
C1761      C1766   1.405       .  A
C1761      H1768   1.081       .  S
C1762      C1763   1.413       .  A
C1763      C1764   1.403       .  A
C1763      C1770   1.502       .  S
C1764      C1765   1.404       .  A
C1764      H1769   1.083       .  S
C1765      C1766   1.421       .  A
C1766      C1767   1.508       .  S
C1767      H1771   1.111       .  S
C1767      H1772   1.110       .  S
C1767      H1773   1.109       .  S
C1770      H1774   1.109       .  S
C1770      H1775   1.102       .  S
C1770      H1776   1.111       .  S
C1777      C1778   1.407       .  A
C1777      C1782   1.411       .  A
C1777      H1784   1.084       .  S
C1778      C1779   1.413       .  A
C1779      C1780   1.398       .  A
C1779      C1786   1.501       .  S
C1780      C1781   1.402       .  A
C1780      H1785   1.084       .  S
C1781      C1782   1.418       .  A
C1782      C1783   1.507       .  S
C1783      H1787   1.111       .  S
C1783      H1788   1.109       .  S
C1783      H1789   1.110       .  S
C1786      H1790   1.111   1_545  S
C1786      H1791   1.100       .  S
C1786      H1792   1.110       .  S
C1793      C1794   1.409       .  A
C1793      C1798   1.403       .  A
C1793      H1800   1.083       .  S
C1794      C1795   1.417       .  A
C1795      C1796   1.402       .  A
C1795      C1802   1.499       .  S
C1796      C1797   1.398       .  A
C1796      H1801   1.084       .  S
C1797      C1798   1.411       .  A
C1798      C1799   1.508       .  S
C1799      H1803   1.111       .  S
C1799      H1804   1.110       .  S
C1799      H1805   1.111       .  S
C1802      H1806   1.108       .  S
C1802      H1807   1.098       .  S
C1802      H1808   1.111       .  S
C1809      C1810   1.407       .  A
C1809      C1814   1.408       .  A
C1809      H1816   1.083       .  S
C1810      C1811   1.424       .  A
C1811      C1812   1.401       .  A
C1811      C1818   1.507       .  S
C1812      C1813   1.399       .  A
C1812      H1817   1.083       .  S
C1813      C1814   1.413       .  A
C1814      C1815   1.503       .  S
C1815      H1819   1.111       .  S
C1815      H1820   1.110       .  S
C1815      H1821   1.097       .  S
C1818      H1822   1.104       .  S
C1818      H1823   1.110       .  S
C1818      H1824   1.111       .  S
C1825      C1826   1.403       .  A
C1825      C1830   1.393       .  A
C1825      H1832   1.085       .  S
C1826      C1827   1.416       .  A
C1827      C1828   1.413       .  A
C1827      C1834   1.505       .  S
C1828      C1829   1.411       .  A
C1828      H1833   1.083       .  S
C1829      C1830   1.413       .  A
C1830      C1831   1.501       .  S
C1831      H1835   1.111       .  S
C1831      H1836   1.096       .  S
C1831      H1837   1.110       .  S
C1834      H1838   1.111       .  S
C1834      H1839   1.110       .  S
C1834      H1840   1.111       .  S
C1841      C1842   1.404       .  A
C1841      C1846   1.404       .  A
C1841      H1848   1.084       .  S
C1842      C1843   1.415       .  A
C1843      C1844   1.404       .  A
C1843      C1850   1.508       .  S
C1844      C1845   1.404       .  A
C1844      H1849   1.077       .  S
C1845      C1846   1.414       .  A
C1846      C1847   1.503       .  S
C1847      H1851   1.111       .  S
C1847      H1852   1.108       .  S
C1847      H1853   1.100       .  S
C1850      H1854   1.110       .  S
C1850      H1855   1.111       .  S
C1850      H1856   1.111       .  S
C1857      C1858   1.404       .  A
C1857      C1862   1.404       .  A
C1857      H1864   1.078       .  S
C1858      C1859   1.414       .  A
C1859      C1860   1.404       .  A
C1859      C1866   1.503       .  S
C1860      C1861   1.404       .  A
C1860      H1865   1.084       .  S
C1861      C1862   1.414       .  A
C1862      C1863   1.508       .  S
C1863      H1867   1.111       .  S
C1863      H1868   1.110       .  S
C1863      H1869   1.111       .  S
C1866      H1870   1.108       .  S
C1866      H1871   1.100       .  S
C1866      H1872   1.111       .  S
C1873      C1874   1.402       .  A
C1873      C1878   1.407       .  A
C1873      H1880   1.082       .  S
C1874      C1875   1.418       .  A
C1875      C1876   1.397       .  A
C1875      C1882   1.505       .  S
C1876      C1877   1.399       .  A
C1876      H1881   1.084       .  S
C1877      C1878   1.418       .  A
C1878      C1879   1.508       .  S
C1879      H1883   1.111       .  S
C1879      H1884   1.109       .  S
C1879      H1885   1.110       .  S
C1882      H1886   1.110       .  S
C1882      H1887   1.104       .  S
C1882      H1888   1.111       .  S
C1889      C1890   1.402       .  A
C1889      C1894   1.407       .  A
C1889      H1896   1.082       .  S
C1890      C1891   1.417       .  A
C1891      C1892   1.397       .  A
C1891      C1898   1.506       .  S
C1892      C1893   1.399       .  A
C1892      H1897   1.084       .  S
C1893      C1894   1.418       .  A
C1894      C1895   1.508       .  S
C1895      H1899   1.111       .  S
C1895      H1900   1.109       .  S
C1895      H1901   1.110       .  S
C1898      H1902   1.110       .  S
C1898      H1903   1.104       .  S
C1898      H1904   1.111   1_556  S
C1905      C1906   1.403       .  A
C1905      C1910   1.404       .  A
C1905      H1912   1.084       .  S
C1906      C1907   1.416       .  A
C1907      C1908   1.403       .  A
C1907      C1914   1.508       .  S
C1908      C1909   1.404       .  A
C1908      H1913   1.078       .  S
C1909      C1910   1.415       .  A
C1910      C1911   1.501       .  S
C1911      H1915   1.111       .  S
C1911      H1916   1.108       .  S
C1911      H1917   1.102       .  S
C1914      H1918   1.110       .  S
C1914      H1919   1.111       .  S
C1914      H1920   1.111       .  S
C1921      C1922   1.402       .  A
C1921      C1926   1.400       .  A
C1921      H1928   1.078       .  S
C1922      C1923   1.413       .  A
C1923      C1924   1.407       .  A
C1923      C1930   1.506       .  S
C1924      C1925   1.407       .  A
C1924      H1929   1.084       .  S
C1925      C1926   1.416       .  A
C1926      C1927   1.509       .  S
C1927      H1931   1.111       .  S
C1927      H1932   1.110       .  S
C1927      H1933   1.111       .  S
C1930      H1934   1.109       .  S
C1930      H1935   1.105       .  S
C1930      H1936   1.111       .  S
C1937      C1938   1.408       .  A
C1937      C1942   1.412       .  A
C1937      H1944   1.083       .  S
C1938      C1939   1.413       .  A
C1939      C1940   1.392       .  A
C1939      C1946   1.502       .  S
C1940      C1941   1.403       .  A
C1940      H1945   1.085       .  S
C1941      C1942   1.418       .  A
C1942      C1943   1.505       .  S
C1943      H1947   1.111       .  S
C1943      H1948   1.110       .  S
C1943      H1949   1.110       .  S
C1946      H1950   1.111       .  S
C1946      H1951   1.097       .  S
C1946      H1952   1.111       .  S
C1953      C1954   1.406       .  A
C1953      C1958   1.407       .  A
C1953      H1960   1.084       .  S
C1954      C1955   1.413       .  A
C1955      C1956   1.401       .  A
C1955      C1962   1.508       .  S
C1956      C1957   1.406       .  A
C1956      H1961   1.083       .  S
C1957      C1958   1.412       .  A
C1958      C1959   1.505       .  S
C1959      H1963   1.111       .  S
C1959      H1964   1.109       .  S
C1959      H1965   1.100       .  S
C1962      H1966   1.110       .  S
C1962      H1967   1.111       .  S
C1962      H1968   1.111       .  S
C1969      C1970   1.404       .  A
C1969      C1974   1.402       .  A
C1969      H1976   1.084       .  S
C1970      C1971   1.416       .  A
C1971      C1972   1.404       .  A
C1971      C1978   1.508       .  S
C1972      C1973   1.404       .  A
C1972      H1977   1.079       .  S
C1973      C1974   1.416       .  A
C1974      C1975   1.503       .  S
C1975      H1979   1.110       .  S
C1975      H1980   1.111       .  S
C1975      H1981   1.101       .  S
C1978      H1982   1.110       .  S
C1978      H1983   1.111       .  S
C1978      H1984   1.111       .  S
C1985      C1986   1.401       .  A
C1985      C1990   1.400       .  A
C1985      H1992   1.078       .  S
C1986      C1987   1.411       .  A
C1987      C1988   1.406       .  A
C1987      C1994   1.505       .  S
C1988      C1989   1.408       .  A
C1988      H1993   1.084       .  S
C1989      C1990   1.417       .  A
C1990      C1991   1.506       .  S
C1991      H1995   1.111       .  S
C1991      H1996   1.106       .  S
C1991      H1997   1.110       .  S
C1994      H1998   1.108       .  S
C1994      H1999   1.105       .  S
C1994      H2000   1.111       .  S
C2001      C2002   1.404       .  A
C2001      C2006   1.401       .  A
C2001      H2008   1.078       .  S
C2002      C2003   1.411       .  A
C2003      C2004   1.405       .  A
C2003      C2010   1.505       .  S
C2004      C2005   1.407       .  A
C2004      H2009   1.084       .  S
C2005      C2006   1.415       .  A
C2006      C2007   1.509       .  S
C2007      H2011   1.111       .  S
C2007      H2012   1.110       .  S
C2007      H2013   1.110       .  S
C2010      H2014   1.108       .  S
C2010      H2015   1.104       .  S
C2010      H2016   1.111       .  S
C2017      C2018   1.404       .  A
C2017      C2022   1.404       .  A
C2017      H2024   1.078       .  S
C2018      C2019   1.414       .  A
C2019      C2020   1.402       .  A
C2019      C2026   1.503       .  S
C2020      C2021   1.406       .  A
C2020      H2025   1.084       .  S
C2021      C2022   1.416       .  A
C2022      C2023   1.508       .  S
C2023      H2027   1.111       .  S
C2023      H2028   1.110       .  S
C2023      H2029   1.110       .  S
C2026      H2030   1.110       .  S
C2026      H2031   1.103       .  S
C2026      H2032   1.111       .  S
C2033      C2034   1.406       .  A
C2033      C2038   1.400       .  A
C2033      H2040   1.083       .  S
C2034      C2035   1.412       .  A
C2035      C2036   1.404       .  A
C2035      C2042   1.504       .  S
C2036      C2037   1.404       .  A
C2036      H2041   1.084       .  S
C2037      C2038   1.413       .  A
C2038      C2039   1.508       .  S
C2039      H2043   1.111       .  S
C2039      H2044   1.110       .  S
C2039      H2045   1.111       .  S
C2042      H2046   1.109       .  S
C2042      H2047   1.100       .  S
C2042      H2048   1.111       .  S
C2049      C2050   1.400       .  A
C2049      C2054   1.398       .  A
C2049      H2056   1.084       .  S
C2050      C2051   1.418       .  A
C2051      C2052   1.409       .  A
C2051      C2058   1.506       .  S
C2052      C2053   1.405       .  A
C2052      H2057   1.084       .  S
C2053      C2054   1.416       .  A
C2054      C2055   1.501       .  S
C2055      H2059   1.110       .  S
C2055      H2060   1.110   1_565  S
C2055      H2061   1.099       .  S
C2058      H2062   1.109       .  S
C2058      H2063   1.110       .  S
C2058      H2064   1.111       .  S
C2065      C2066   1.401       .  A
C2065      C2070   1.400       .  A
C2065      H2072   1.077       .  S
C2066      C2067   1.412       .  A
C2067      C2068   1.407       .  A
C2067      C2074   1.506       .  S
C2068      C2069   1.408       .  A
C2068      H2073   1.084       .  S
C2069      C2070   1.417       .  A
C2070      C2071   1.509       .  S
C2071      H2075   1.111       .  S
C2071      H2076   1.110       .  S
C2071      H2077   1.110       .  S
C2074      H2078   1.109       .  S
C2074      H2079   1.102       .  S
C2074      H2080   1.111       .  S
C2081      C2082   1.403       .  A
C2081      C2086   1.404       .  A
C2081      H2088   1.078       .  S
C2082      C2083   1.412       .  A
C2083      C2084   1.403       .  A
C2083      C2090   1.503       .  S
C2084      C2085   1.406       .  A
C2084      H2089   1.084       .  S
C2085      C2086   1.416       .  A
C2086      C2087   1.507       .  S
C2087      H2091   1.111       .  S
C2087      H2092   1.109       .  S
C2087      H2093   1.110       .  S
C2090      H2094   1.109       .  S
C2090      H2095   1.100       .  S
C2090      H2096   1.111       .  S
C2097      C2098   1.402       .  A
C2097      C2102   1.405       .  A
C2097      H2104   1.084       .  S
C2098      C2099   1.413       .  A
C2099      C2100   1.404       .  A
C2099      C2106   1.499       .  S
C2100      C2101   1.406       .  A
C2100      H2105   1.084       .  S
C2101      C2102   1.423       .  A
C2102      C2103   1.507       .  S
C2103      H2107   1.111       .  S
C2103      H2108   1.110       .  S
C2103      H2109   1.107       .  S
C2106      H2110   1.110       .  S
C2106      H2111   1.100       .  S
C2106      H2112   1.109       .  S
C2113      C2114   1.407       .  A
C2113      C2118   1.409       .  A
C2113      H2120   1.083       .  S
C2114      C2115   1.413       .  A
C2115      C2116   1.393       .  A
C2115      C2122   1.503       .  S
C2116      C2117   1.402       .  A
C2116      H2121   1.085       .  S
C2117      C2118   1.416       .  A
C2118      C2119   1.506       .  S
C2119      H2123   1.111       .  S
C2119      H2124   1.109       .  S
C2119      H2125   1.111       .  S
C2122      H2126   1.110       .  S
C2122      H2127   1.101       .  S
C2122      H2128   1.110       .  S
C2129      C2130   1.407       .  A
C2129      C2134   1.408       .  A
C2129      H2136   1.083       .  S
C2130      C2131   1.415       .  A
C2131      C2132   1.395       .  A
C2131      C2138   1.502       .  S
C2132      C2133   1.399       .  A
C2132      H2137   1.085       .  S
C2133      C2134   1.415       .  A
C2134      C2135   1.507       .  S
C2135      H2139   1.111       .  S
C2135      H2140   1.110       .  S
C2135      H2141   1.109       .  S
C2138      H2142   1.110       .  S
C2138      H2143   1.098   1_455  S
C2138      H2144   1.111   1_455  S
C2145      C2146   1.409       .  A
C2145      C2150   1.404       .  A
C2145      H2152   1.083       .  S
C2146      C2147   1.416       .  A
C2147      C2148   1.403       .  A
C2147      C2154   1.501       .  S
C2148      C2149   1.400       .  A
C2148      H2153   1.084       .  S
C2149      C2150   1.411       .  A
C2150      C2151   1.507       .  S
C2151      H2155   1.111       .  S
C2151      H2156   1.111       .  S
C2151      H2157   1.110       .  S
C2154      H2158   1.096       .  S
C2154      H2159   1.108       .  S
C2154      H2160   1.111       .  S
C2161      C2162   1.400       .  A
C2161      C2166   1.401       .  A
C2161      H2168   1.078       .  S
C2162      C2163   1.413       .  A
C2163      C2164   1.405       .  A
C2163      C2170   1.505       .  S
C2164      C2165   1.406       .  A
C2164      H2169   1.084       .  S
C2165      C2166   1.417       .  A
C2166      C2167   1.505       .  S
C2167      H2171   1.111       .  S
C2167      H2172   1.110       .  S
C2167      H2173   1.105       .  S
C2170      H2174   1.103       .  S
C2170      H2175   1.108       .  S
C2170      H2176   1.111       .  S
C2177      C2178   1.403       .  A
C2177      C2182   1.402       .  A
C2177      H2184   1.084       .  S
C2178      C2179   1.419       .  A
C2179      C2180   1.402       .  A
C2179      C2186   1.510       .  S
C2180      C2181   1.402       .  A
C2180      H2185   1.078       .  S
C2181      C2182   1.417       .  A
C2182      C2183   1.502       .  S
C2183      H2187   1.110       .  S
C2183      H2188   1.110       .  S
C2183      H2189   1.100       .  S
C2186      H2190   1.109       .  S
C2186      H2191   1.110       .  S
C2186      H2192   1.111       .  S
C2193      C2194   1.401       .  A
C2193      C2198   1.402       .  A
C2193      H2200   1.078       .  S
C2194      C2195   1.417       .  A
C2195      C2196   1.403       .  A
C2195      C2202   1.502       .  S
C2196      C2197   1.403       .  A
C2196      H2201   1.084       .  S
C2197      C2198   1.420       .  A
C2198      C2199   1.510       .  S
C2199      H2203   1.111       .  S
C2199      H2204   1.109       .  S
C2199      H2205   1.111       .  S
C2202      H2206   1.100       .  S
C2202      H2207   1.110       .  S
C2202      H2208   1.110       .  S
C2209      C2210   1.402       .  A
C2209      C2214   1.402       .  A
C2209      H2216   1.078       .  S
C2210      C2211   1.413       .  A
C2211      C2212   1.404       .  A
C2211      C2218   1.505       .  S
C2212      C2213   1.406       .  A
C2212      H2217   1.084       .  S
C2213      C2214   1.417       .  A
C2214      C2215   1.508       .  S
C2215      H2219   1.111       .  S
C2215      H2220   1.110       .  S
C2215      H2221   1.110       .  S
C2218      H2222   1.103       .  S
C2218      H2223   1.107       .  S
C2218      H2224   1.111       .  S
C2225      C2226   1.404       .  A
C2225      C2230   1.407       .  A
C2225      H2232   1.084       .  S
C2226      C2227   1.415       .  A
C2227      C2228   1.406       .  A
C2227      C2234   1.508       .  S
C2228      C2229   1.406       .  A
C2228      H2233   1.079       .  S
C2229      C2230   1.416       .  A
C2230      C2231   1.502       .  S
C2231      H2235   1.111       .  S
C2231      H2236   1.102       .  S
C2231      H2237   1.108       .  S
C2234      H2238   1.111       .  S
C2234      H2239   1.110       .  S
C2234      H2240   1.111       .  S
C2241      C2242   1.395       .  A
C2241      C2246   1.393       .  A
C2241      H2248   1.078       .  S
C2242      C2243   1.413       .  A
C2243      C2244   1.409       .  A
C2243      C2250   1.505       .  S
C2244      C2245   1.408       .  A
C2244      H2249   1.083       .  S
C2245      C2246   1.425       .  A
C2246      C2247   1.511       .  S
C2247      H2251   1.111       .  S
C2247      H2252   1.110       .  S
C2247      H2253   1.106       .  S
C2250      H2254   1.105       .  S
C2250      H2255   1.109       .  S
C2250      H2256   1.110       .  S
C2257      C2258   1.406       .  A
C2257      C2262   1.408       .  A
C2257      H2264   1.084       .  S
C2258      C2259   1.416       .  A
C2259      C2260   1.396       .  A
C2259      C2266   1.502       .  S
C2260      C2261   1.399       .  A
C2260      H2265   1.084       .  S
C2261      C2262   1.417       .  A
C2262      C2263   1.507       .  S
C2263      H2267   1.111       .  S
C2263      H2268   1.110       .  S
C2263      H2269   1.109       .  S
C2266      H2270   1.101       .  S
C2266      H2271   1.110       .  S
C2266      H2272   1.110       .  S
C2273      C2274   1.401       .  A
C2273      C2278   1.399       .  A
C2273      H2280   1.084       .  S
C2274      C2275   1.413       .  A
C2275      C2276   1.406       .  A
C2275      C2282   1.501       .  S
C2276      C2277   1.407       .  A
C2276      H2281   1.084       .  S
C2277      C2278   1.424       .  A
C2278      C2279   1.511       .  S
C2279      H2283   1.111       .  S
C2279      H2284   1.110       .  S
C2279      H2285   1.110       .  S
C2282      H2286   1.103       .  S
C2282      H2287   1.110       .  S
C2282      H2288   1.109       .  S
