geometry optimzed in LAMMPS
_audit_creation_date              2020-11-30 
_audit_creation_method            'lammps2cif' 
_symmetry_space_group_name_H-M    'P1' 
_symmetry_Int_Tables_number       1 
_symmetry_cell_setting            triclinic 
loop_ 
_symmetry_equiv_pos_as_xyz 
  x,y,z 
_cell_length_a                    34.2139913011176 
_cell_length_b                    34.14634881127139 
_cell_length_c                    34.0896434964944 
_cell_angle_alpha                 89.7872749238577 
_cell_angle_beta                  89.10850368571228 
_cell_angle_gamma                 91.26276056185121 
loop_ 
_atom_site_label 
_atom_site_type_symbol 
_atom_site_fract_x 
_atom_site_fract_y 
_atom_site_fract_z 
_atom_site_charge 
C1          C  0.87433635  0.27196534  0.50002775    -0.01160
C2          C  0.87078928  0.50225560  0.25061414    -0.01160
C3          C  0.86629346  0.51253904  0.73800309    -0.01160
C4          C  0.86989161  0.75629221  0.49897688    -0.01160
O5          O  0.85696702  0.57003729  0.50122117    -0.71610
O6          O  0.85900871  0.45654954  0.48971358    -0.72590
O7          O  0.86182840  0.51958155  0.43841911    -0.61210
O8          O  0.85488080  0.50785936  0.55333747    -0.69620
O9          O  0.79026756  0.51138541  0.55326675    -0.69180
O10         O  0.79734712  0.51312076  0.43399987    -0.60430
O11         O  0.79412980  0.45259315  0.49246549    -0.72940
O12         O  0.79274212  0.57116120  0.49341150    -0.71720
Cu13       Cu  0.86004807  0.51352766  0.49581326     1.04560
Cu14       Cu  0.79091265  0.51190291  0.49321672     1.04330
C15         C  0.82574634  0.58899368  0.49662676     0.94580
C16         C  0.82739600  0.43622595  0.49087796     0.93720
C17         C  0.83127193  0.51657294  0.41777900     0.85870
C18         C  0.82244665  0.51021515  0.57194219     0.92140
C19         C  0.25776075  0.87667513  0.49817211    -0.01160
C20         C  0.49661903  0.88570596  0.25599875    -0.01160
C21         C  0.50055184  0.86986157  0.73892952    -0.01160
C22         C  0.74506052  0.88569582  0.49759171    -0.01160
O23         O  0.43991535  0.79192816  0.49809213    -0.71610
O24         O  0.55919253  0.80737100  0.49591904    -0.72590
O25         O  0.50073235  0.79307939  0.55649671    -0.61210
O26         O  0.49663829  0.80596020  0.43860160    -0.69620
O27         O  0.49113060  0.86945543  0.44742466    -0.69180
O28         O  0.49489581  0.85749189  0.56159232    -0.60430
O29         O  0.55071922  0.87102031  0.50208383    -0.72940
O30         O  0.43488156  0.85614747  0.50569003    -0.71720
Cu31       Cu  0.49964447  0.79710665  0.49704149     1.04560
Cu32       Cu  0.49286299  0.86545962  0.50446226     1.04330
C33         C  0.41887577  0.82234128  0.50135332     0.94580
C34         C  0.57363514  0.84219422  0.49917221     0.93720
C35         C  0.49741499  0.82384216  0.57747892     0.85870
C36         C  0.49110763  0.84013576  0.42456231     0.92140
C37         C  0.49654109  0.27356807  0.87237966    -0.01160
C38         C  0.24749082  0.50584528  0.87784921    -0.01160
C39         C  0.74115564  0.50949658  0.87211572    -0.01160
C40         C  0.49607381  0.75364088  0.87963475    -0.01160
O41         O  0.49660094  0.57295011  0.80207128    -0.71610
O42         O  0.49018259  0.45575987  0.79433025    -0.72590
O43         O  0.43300913  0.51660773  0.79889429    -0.61210
O44         O  0.55398178  0.51296472  0.80122329    -0.69620
O45         O  0.54720232  0.50876245  0.86514118    -0.69180
O46         O  0.43608448  0.50890841  0.86290271    -0.60430
O47         O  0.48888394  0.45248750  0.85947681    -0.72940
O48         O  0.49289312  0.56657197  0.86683039    -0.71720
Cu49       Cu  0.49344588  0.51466497  0.79628384     1.04560
Cu50       Cu  0.49113387  0.50909575  0.86529419     1.04330
C51         C  0.49608521  0.58801731  0.83621694     0.94580
C52         C  0.48929054  0.43592563  0.82613090     0.93720
C53         C  0.41590118  0.51343151  0.83262173     0.85870
C54         C  0.56951662  0.51095890  0.83533150     0.92140
C55         C  0.38480596  0.00421688  0.75737815    -0.01160
C56         C  0.36709202  0.77106019  0.00248411    -0.01160
C57         C  0.37767285  0.25372293  0.01127384    -0.01160
C58         C  0.37280868  0.01464053  0.24416440    -0.01160
O59         O  0.28884416  0.95247121  0.00353822    -0.71610
O60         O  0.29256509  0.06981801  0.99680238    -0.72590
O61         O  0.28968998  0.00694472  0.93911087    -0.61210
O62         O  0.29642968  0.01237052  0.06058744    -0.69620
O63         O  0.36028980  0.00696589  0.05297629    -0.69180
O64         O  0.35344889  0.01719375  0.94166051    -0.60430
O65         O  0.35736267  0.06977784  0.00046429    -0.72940
O66         O  0.35326694  0.95407068  0.99425480    -0.71720
Cu67       Cu  0.28899674  0.01075536  0.00010613     1.04560
Cu68       Cu  0.35786291  0.01206637  0.99703881     1.04330
C69         C  0.32120768  0.93500927  0.00075027     0.94580
C70         C  0.32544742  0.08813150  0.99825495     0.93720
C71         C  0.32323707  0.01003240  0.92178085     0.85870
C72         C  0.33063857  0.00863052  0.07537067     0.92140
C73         C  0.00179616  0.63638211  0.75030571    -0.01160
C74         C  0.75657584  0.64009013  0.99632673    -0.01160
C75         C  0.23985513  0.63625282  0.00552178    -0.01160
C76         C  0.99485717  0.63440231  0.24780677    -0.01160
O77         O  0.94155848  0.70849167  0.99277078    -0.71610
O78         O  0.05772622  0.70658159  0.00247568    -0.72590
O79         O  0.00530762  0.70581947  0.93801661    -0.61210
O80         O  0.99258876  0.70570153  0.05868314    -0.69620
O81         O  0.99839421  0.64178311  0.05502231    -0.69180
O82         O  0.99532433  0.64207021  0.94226529    -0.60430
O83         O  0.05577081  0.64193238  0.99582577    -0.72940
O84         O  0.93910793  0.64375317  0.99983115    -0.71720
Cu85       Cu  0.99950935  0.70933547  0.99809843     1.04560
Cu86       Cu  0.99717686  0.64043761  0.99834248     1.04330
C87         C  0.92211873  0.67633716  0.99531053     0.94580
C88         C  0.07517548  0.67414578  0.99866548     0.93720
C89         C  0.00139061  0.67231794  0.92135630     0.85870
C90         C  0.99285146  0.67201179  0.07566146     0.92140
C91         C  0.63036760  0.77023051  0.99695792    -0.01160
C92         C  0.62573611  0.00410756  0.74840904    -0.01160
C93         C  0.61801495  0.25734175  0.99907867    -0.01160
C94         C  0.62976121  0.00669998  0.24427587    -0.01160
O95         O  0.62023719  0.06221911  0.00063238    -0.71610
O96         O  0.63729876  0.94909858  0.99969387    -0.72590
O97         O  0.63373564  0.00680508  0.05501901    -0.61210
O98         O  0.62449275  0.00465089  0.94129499    -0.69620
O99         O  0.68846578  0.01618002  0.93596034    -0.69180
O100        O  0.69807660  0.01207838  0.05475391    -0.60430
O101        O  0.70177575  0.95711851  0.99374890    -0.72940
O102        O  0.68404963  0.07415856  0.00039808    -0.71720
Cu103      Cu  0.62709367  0.00546960  0.99920938     1.04560
Cu104      Cu  0.69572262  0.01567723  0.99569864     1.04330
C105        C  0.64888773  0.08634114  0.00322981     0.94580
C106        C  0.67133366  0.93494057  0.99689422     0.93720
C107        C  0.66573529  0.00712802  0.07341604     0.85870
C108        C  0.65520824  0.00928275  0.92010963     0.92140
C109        C  0.25704393  0.50957825  0.12890840    -0.01160
C110        C  0.50195109  0.26678107  0.14052381    -0.01160
C111        C  0.50147812  0.75734542  0.12277712    -0.01160
C112        C  0.74404256  0.50839055  0.12293999    -0.01160
O113        O  0.50428508  0.45372114  0.20455441    -0.71610
O114        O  0.50067426  0.57206068  0.20090641    -0.72590
O115        O  0.44237287  0.50923277  0.20079118    -0.61210
O116        O  0.56149907  0.51450246  0.20316607    -0.69620
O117        O  0.56181933  0.51309640  0.13804667    -0.69180
O118        O  0.44798287  0.50749371  0.13637237    -0.60430
O119        O  0.50219835  0.56765770  0.13604099    -0.72940
O120        O  0.50698326  0.45207356  0.13940413    -0.71720
Cu121      Cu  0.50205606  0.51264597  0.20494392     1.04560
Cu122      Cu  0.50478775  0.51018507  0.13552153     1.04330
C123        C  0.50661592  0.43457396  0.17250875     0.94580
C124        C  0.50160250  0.58837050  0.16708539     0.93720
C125        C  0.42644030  0.50693138  0.16705468     0.85870
C126        C  0.57997975  0.51249739  0.17028438     0.92140
C127        C  0.75952244  0.38019487  0.99337578    -0.01160
C128        C  0.99651789  0.38964318  0.74819607    -0.01160
C129        C  0.24382154  0.37821365  0.00905958    -0.01160
C130        C  0.00436829  0.38198895  0.24064620    -0.01160
O131        O  0.94231038  0.36983966  0.99800397    -0.71610
O132        O  0.06051090  0.37131996  0.99579212    -0.72590
O133        O  0.00218027  0.37365905  0.93721726    -0.61210
O134        O  0.00179101  0.36992110  0.05520185    -0.69620
O135        O  0.00237827  0.30510746  0.05576799    -0.69180
O136        O  0.00002834  0.30893334  0.93462847    -0.60430
O137        O  0.05943223  0.30630856  0.99375806    -0.72940
O138        O  0.94152721  0.30484441  0.99836010    -0.71720
Cu139      Cu  0.00150897  0.37330784  0.99655193     1.04560
Cu140      Cu  0.00060685  0.30395963  0.99544889     1.04330
C141        C  0.92335466  0.33707853  0.99930055     0.94580
C142        C  0.07843306  0.33883261  0.99508471     0.93720
C143        C  0.00213082  0.34229992  0.91688793     0.85870
C144        C  0.00371416  0.33777933  0.07426266     0.92140
C145        C  0.76635766  0.00629798  0.62928367    -0.01160
C146        C  0.99640203  0.77028019  0.62104708    -0.01160
C147        C  0.00201819  0.25452620  0.62543651    -0.01160
C148        C  0.25388854  0.00280681  0.62996996    -0.01160
O149        O  0.00888666  0.95902982  0.63928433    -0.71610
O150        O  0.02053044  0.07152541  0.64521155    -0.72590
O151        O  0.07201998  0.01141214  0.64289131    -0.61210
O152        O  0.95613878  0.01939212  0.64084179    -0.69620
O153        O  0.95079419  0.01193454  0.70526233    -0.69180
O154        O  0.07043753  0.01320953  0.70793919    -0.60430
O155        O  0.00980135  0.07193528  0.70947250    -0.72940
O156        O  0.01103245  0.95232030  0.70362368    -0.71720
Cu157      Cu  0.01450076  0.01542707  0.64027767     1.04560
Cu158      Cu  0.01059834  0.01215550  0.70935845     1.04330
C159        C  0.01011606  0.93703826  0.66933605     0.94580
C160        C  0.01342732  0.09006765  0.67665902     0.93720
C161        C  0.08977945  0.01243788  0.67540990     0.85870
C162        C  0.93483465  0.01624503  0.67179602     0.92140
C163        C  0.13266447  0.25438293  0.49594600    -0.01160
C164        C  0.12511010  0.51882964  0.25818320    -0.01160
C165        C  0.13191854  0.51710627  0.73770644    -0.01160
C166        C  0.12738130  0.74414006  0.49719668    -0.01160
O167        O  0.20374987  0.44065864  0.49985543    -0.71610
O168        O  0.20966445  0.56125086  0.49793464    -0.72590
O169        O  0.21783096  0.50165806  0.55739153    -0.61210
O170        O  0.20021347  0.50105420  0.44038816    -0.69620
O171        O  0.13702041  0.49908161  0.45304083    -0.69180
O172        O  0.15369811  0.50470895  0.56762389    -0.60430
O173        O  0.14535803  0.55759796  0.50563792    -0.72940
O174        O  0.14039828  0.44412491  0.51371445    -0.71720
Cu175      Cu  0.21052570  0.50082057  0.49855990     1.04560
Cu176      Cu  0.14229986  0.50123220  0.51041624     1.04330
C177        C  0.17021782  0.42386813  0.50647810     0.94580
C178        C  0.17655449  0.57799529  0.50156728     0.93720
C179        C  0.18850811  0.50473612  0.58069243     0.85870
C180        C  0.16518694  0.50129201  0.42812784     0.92140
C181        C  0.26285057  0.12992182  0.49913292    -0.01160
C182        C  0.50732774  0.13405776  0.26622126    -0.01160
C183        C  0.51080498  0.13963599  0.75190469    -0.01160
C184        C  0.74059571  0.13634494  0.50353323    -0.01160
O185        O  0.44401414  0.14696351  0.51204656    -0.71610
O186        O  0.55885844  0.14969773  0.51805185    -0.72590
O187        O  0.49468311  0.15081993  0.57082901    -0.61210
O188        O  0.50424941  0.14395635  0.45901809    -0.69620
O189        O  0.50641511  0.20804814  0.45123803    -0.69180
O190        O  0.49627563  0.21591114  0.56956289    -0.60430
O191        O  0.55986839  0.21464514  0.51358875    -0.72940
O192        O  0.44286517  0.21175869  0.50620658    -0.71720
Cu193      Cu  0.50044017  0.14596539  0.51525830     1.04560
Cu194      Cu  0.50118909  0.21528864  0.51014504     1.04330
C195        C  0.42541192  0.17836681  0.50706705     0.94580
C196        C  0.57774945  0.18231955  0.51583156     0.93720
C197        C  0.49478521  0.18339136  0.58842133     0.85870
C198        C  0.50737738  0.17355288  0.43663664     0.92140
C199        C  0.99949541  0.76830253  0.37194684    -0.01160
C200        C  0.75903365  0.01202461  0.37157945    -0.01160
C201        C  0.24257489  0.00481275  0.37275281    -0.01160
C202        C  0.00165227  0.25453084  0.37241152    -0.01160
O203        O  0.99975524  0.95440530  0.36330784    -0.71610
O204        O  0.99838916  0.07251922  0.36257819    -0.72590
O205        O  0.94056404  0.01199658  0.36121347    -0.61210
O206        O  0.05562563  0.01380730  0.36572382    -0.69620
O207        O  0.06131530  0.01449990  0.30086704    -0.69180
O208        O  0.94280272  0.01074365  0.29617050    -0.60430
O209        O  0.00129263  0.07226808  0.29750702    -0.72940
O210        O  0.00475715  0.95347733  0.29831203    -0.71720
Cu211      Cu  0.99840096  0.01314529  0.36529988     1.04560
Cu212      Cu  0.00258481  0.01271009  0.29578236     1.04330
C213        C  0.00377666  0.93546688  0.33125068     0.94580
C214        C  0.99956258  0.09105542  0.32988009     0.93720
C215        C  0.92312838  0.01211005  0.32844007     0.85870
C216        C  0.07683873  0.01393923  0.33474425     0.92140
C217        C  0.99877033  0.13474702  0.32978966    -0.04010
C218        C  0.03337535  0.15754127  0.33252982    -0.01120
C219        C  0.03093337  0.19855721  0.33013119     0.03870
C220        C  0.99728657  0.21601653  0.34575548    -0.04010
C221        C  0.96237515  0.19592092  0.33248361    -0.01110
C222        C  0.96372296  0.15492941  0.32418867     0.03860
C223        C  0.07106526  0.13964280  0.32894472     0.38510
C224        C  0.92575451  0.21462313  0.32569937     0.38500
C225        C  0.93007160  0.13409248  0.30855518     0.36930
C226        C  0.04272617  0.21402787  0.29204119     0.36930
N227        N  0.90345724  0.11791763  0.29505279    -0.37890
N228        N  0.05123141  0.22602008  0.26119094    -0.37890
N229        N  0.89495267  0.22533489  0.31796083    -0.37340
N230        N  0.10120028  0.12524268  0.32569206    -0.37340
C231        C  0.11963896  0.01387302  0.33951436    -0.04010
C232        C  0.14450966  0.99095754  0.31582836    -0.01120
C233        C  0.18332200  0.98482804  0.32811830     0.03870
C234        C  0.20070028  0.01119701  0.35570692    -0.04010
C235        C  0.17654947  0.04237643  0.36849699    -0.01110
C236        C  0.13651123  0.03572467  0.37010987     0.03860
C237        C  0.13144706  0.97560437  0.27866385     0.38510
C238        C  0.18359682  0.08106249  0.35224864     0.38500
C239        C  0.11362038  0.05917477  0.39691081     0.36930
C240        C  0.20459435  0.95238855  0.31186591     0.36930
N241        N  0.09530440  0.07762954  0.41847235    -0.37890
N242        N  0.22039228  0.92580264  0.29861157    -0.37890
N243        N  0.18651134  0.11172592  0.33773745    -0.37340
N244        N  0.12154431  0.96449282  0.24827780    -0.37340
C245        C  0.79840490  0.01910333  0.34582875    -0.04010
C246        C  0.82345040  0.05198973  0.35150597    -0.01120
C247        C  0.86376014  0.04670335  0.35184090     0.03870
C248        C  0.87993982  0.01673369  0.32909451    -0.04010
C249        C  0.85401952  0.99338056  0.30681576    -0.01110
C250        C  0.81284699  0.99433197  0.31511111     0.03860
C251        C  0.81239755  0.08997597  0.33754128     0.38510
C252        C  0.86960477  0.96662376  0.27791487     0.38500
C253        C  0.78749378  0.96929584  0.29210676     0.36930
C254        C  0.88781285  0.07427656  0.37346127     0.36930
N255        N  0.76969322  0.94786126  0.27271570    -0.37890
N256        N  0.90645696  0.09594277  0.39172045    -0.37890
N257        N  0.88208595  0.94517852  0.25494868    -0.37340
N258        N  0.80695998  0.12049806  0.32408397    -0.37340
C259        C  0.99912823  0.80998523  0.35086947    -0.04010
C260        C  0.96442378  0.83284923  0.34793620    -0.01120
C261        C  0.96716293  0.87372314  0.34418744     0.03870
C262        C  0.00241594  0.89197926  0.33287943    -0.04010
C263        C  0.03474623  0.86843650  0.32405234    -0.01110
C264        C  0.03350756  0.82777311  0.33342853     0.03860
C265        C  0.92558299  0.81622052  0.34304809     0.38510
C266        C  0.07074326  0.88589080  0.30907690     0.38500
C267        C  0.06780725  0.80475727  0.32485984     0.36930
C268        C  0.93336173  0.89756455  0.35220000     0.36930
N269        N  0.09527244  0.78710665  0.31687220    -0.37890
N270        N  0.90762444  0.91782061  0.35934836    -0.37890
N271        N  0.10069505  0.89751942  0.29748224    -0.37340
N272        N  0.89334339  0.80684786  0.33791561    -0.37340
C273        C  0.74038546  0.10819571  0.46439913    -0.04010
C274        C  0.70773669  0.08630084  0.44711871    -0.01120
C275        C  0.71346235  0.05813804  0.41601223     0.03870
C276        C  0.75161733  0.04873061  0.40101157    -0.04010
C277        C  0.78182562  0.06749447  0.42294657    -0.01110
C278        C  0.77505415  0.10311981  0.44244893     0.03860
C279        C  0.66701253  0.09277891  0.45638537     0.38510
C280        C  0.81647971  0.04697137  0.43380038     0.38500
C281        C  0.78459351  0.13589904  0.41784007     0.36930
C282        C  0.68125474  0.03097807  0.40876826     0.36930
N283        N  0.78875166  0.16116285  0.39559913    -0.37890
N284        N  0.65602707  0.00810498  0.40635095    -0.37890
N285        N  0.84442607  0.03091459  0.44271063    -0.37340
N286        N  0.63351556  0.09626609  0.45956021    -0.37340
C287        C  0.69956064  0.15652699  0.50762438    -0.04010
C288        C  0.68199358  0.16606477  0.54502158    -0.01120
C289        C  0.64301529  0.17894040  0.54736968     0.03870
C290        C  0.62084069  0.18174154  0.51346653    -0.04010
C291        C  0.63990973  0.18168411  0.47685789    -0.01110
C292        C  0.67969274  0.17162203  0.47402975     0.03860
C293        C  0.70356927  0.16636689  0.58124801     0.38510
C294        C  0.61836567  0.19143570  0.44188194     0.38500
C295        C  0.69921841  0.17833791  0.43652899     0.36930
C296        C  0.62688088  0.19356760  0.58392278     0.36930
N297        N  0.71204611  0.18549563  0.40569298    -0.37890
N298        N  0.61467731  0.20670297  0.61272305    -0.37890
N299        N  0.60142989  0.19933105  0.41392752    -0.37340
N300        N  0.71838574  0.16745763  0.61152422    -0.37340
C301        C  0.51078224  0.16362980  0.71105205    -0.04010
C302        C  0.54160022  0.15978426  0.68189736    -0.01120
C303        C  0.53253417  0.16004882  0.64275656     0.03870
C304        C  0.50035431  0.18108134  0.63061881    -0.04010
C305        C  0.47655773  0.19920712  0.65885668    -0.01110
C306        C  0.48194170  0.19087663  0.69935987     0.03860
C307        C  0.58319648  0.15781796  0.68909764     0.38510
C308        C  0.44703265  0.22617654  0.64651259     0.38500
C309        C  0.46670368  0.21892425  0.72670280     0.36930
C310        C  0.55622674  0.13672402  0.61598532     0.36930
N311        N  0.45471271  0.24328195  0.74671128    -0.37890
N312        N  0.57478840  0.11692554  0.59586218    -0.37890
N313        N  0.42362688  0.24811326  0.63710705    -0.37340
N314        N  0.61689820  0.15777940  0.69139297    -0.37340
C315        C  0.51070872  0.14686069  0.31132787    -0.04010
C316        C  0.51244358  0.18653078  0.32511257    -0.01120
C317        C  0.50796914  0.19544627  0.36536325     0.03870
C318        C  0.51187343  0.16597139  0.39378214    -0.04010
C319        C  0.52010565  0.12772054  0.38094244    -0.01110
C320        C  0.51489217  0.11738059  0.34162980     0.03860
C321        C  0.52499758  0.21896949  0.30094257     0.38510
C322        C  0.53546451  0.09842587  0.40755606     0.38500
C323        C  0.51568488  0.07557049  0.33364751     0.36930
C324        C  0.50154028  0.23574488  0.37704273     0.36930
N325        N  0.51731735  0.04217930  0.32899134    -0.37890
N326        N  0.49651747  0.26794989  0.38591894    -0.37890
N327        N  0.54770161  0.07487929  0.42826663    -0.37340
N328        N  0.53517822  0.24673422  0.28409497    -0.37340
C329        C  0.25149560  0.03821526  0.40415157    -0.04010
C330        C  0.25205472  0.03097383  0.44512026    -0.01120
C331        C  0.27013519  0.05965202  0.46824088     0.03870
C332        C  0.25812327  0.09927971  0.46378886    -0.04010
C333        C  0.24705626  0.10723327  0.42430845    -0.01110
C334        C  0.25488464  0.07898617  0.39452032     0.03860
C335        C  0.21562558  0.01802770  0.46282387     0.38510
C336        C  0.22780861  0.14193870  0.41221468     0.38500
C337        C  0.26715239  0.09331702  0.35612730     0.36930
C338        C  0.30708565  0.05023153  0.48523989     0.36930
N339        N  0.27747134  0.10735526  0.32666565    -0.37890
N340        N  0.33714839  0.04261694  0.49798231    -0.37890
N341        N  0.21103185  0.16799161  0.39963687    -0.37340
N342        N  0.18581853  0.00881844  0.47692145    -0.37340
C343        C  0.30421296  0.15060373  0.49524168    -0.04010
C344        C  0.31614271  0.18192596  0.52075674    -0.01120
C345        C  0.35542672  0.19589680  0.51992722     0.03870
C346        C  0.38366999  0.17416993  0.49953731    -0.04010
C347        C  0.37176807  0.14478622  0.47346952    -0.01110
C348        C  0.33237995  0.13945117  0.46625840     0.03860
C349        C  0.29105794  0.19531403  0.55234635     0.38510
C350        C  0.39980217  0.12255769  0.45043396     0.38500
C351        C  0.32467957  0.13992583  0.42483383     0.36930
C352        C  0.36735254  0.22856453  0.54433055     0.36930
N353        N  0.32303678  0.14371228  0.39119620    -0.37890
N354        N  0.37654192  0.25494772  0.56354893    -0.37890
N355        N  0.42190641  0.10435784  0.43254567    -0.37340
N356        N  0.27299278  0.20565696  0.57916262    -0.37340
C357        C  0.03929714  0.76415774  0.39840898    -0.04010
C358        C  0.06424493  0.73082332  0.39803361    -0.01120
C359        C  0.08922025  0.72160088  0.43012988     0.03870
C360        C  0.09797358  0.74946378  0.46057728    -0.04010
C361        C  0.07768293  0.78558164  0.45703695    -0.01110
C362        C  0.05408198  0.79402649  0.42422692     0.03860
C363        C  0.07218354  0.70988807  0.36187884     0.38510
C364        C  0.08474399  0.81743433  0.48466855     0.38500
C365        C  0.05989810  0.83415261  0.41095355     0.36930
C366        C  0.10248589  0.68166620  0.43101607     0.36930
N367        N  0.06734293  0.86659443  0.40337491    -0.37890
N368        N  0.11072174  0.64897456  0.43005966    -0.37890
N369        N  0.09018818  0.84338271  0.50578269    -0.37340
N370        N  0.08025336  0.69272125  0.33377680    -0.37340
C371        C  0.14518854  0.70110369  0.50123520    -0.04010
C372        C  0.17478074  0.68692250  0.47436362    -0.01120
C373        C  0.18815077  0.64764784  0.47641467     0.03870
C374        C  0.17168767  0.62115028  0.50390808    -0.04010
C375        C  0.14543643  0.63512102  0.53233207    -0.01110
C376        C  0.13587796  0.67477885  0.53366732     0.03860
C377        C  0.19204827  0.71131939  0.44362700     0.38510
C378        C  0.12751497  0.60835498  0.56132739     0.38500
C379        C  0.11914877  0.68596422  0.57118010     0.36930
C380        C  0.21673760  0.63366142  0.44818519     0.36930
N381        N  0.10489554  0.69097612  0.60164008    -0.37890
N382        N  0.23959938  0.62265885  0.42566192    -0.37890
N383        N  0.11257737  0.58761730  0.58417691    -0.37340
N384        N  0.20808154  0.72844709  0.41858792    -0.37340
C385        C  0.15946324  0.51752925  0.69929869    -0.04010
C386        C  0.16700408  0.55184168  0.67466304    -0.01120
C387        C  0.18566465  0.54813803  0.63775876     0.03870
C388        C  0.19376765  0.51126689  0.62311507    -0.04010
C389        C  0.19678153  0.48021168  0.64956122    -0.01110
C390        C  0.18198118  0.48395197  0.68845761     0.03860
C391        C  0.15860533  0.59179511  0.68620596     0.38510
C392        C  0.21066824  0.44288990  0.63568216     0.38500
C393        C  0.18619957  0.45026935  0.71374146     0.36930
C394        C  0.19878577  0.58220301  0.61512213     0.36930
N395        N  0.19206147  0.42164946  0.73074098    -0.37890
N396        N  0.21038369  0.60931453  0.59770687    -0.37890
N397        N  0.22117246  0.41249280  0.62579700    -0.37340
N398        N  0.15290904  0.62407806  0.69432054    -0.37340
C399        C  0.13696097  0.51450495  0.30306006    -0.04010
C400        C  0.17339765  0.52814327  0.31785819    -0.01120
C401        C  0.18405710  0.52065291  0.35734467     0.03870
C402        C  0.15619337  0.50548940  0.38517040    -0.04010
C403        C  0.11743200  0.49928407  0.37261212    -0.01110
C404        C  0.10787108  0.50357687  0.33290961     0.03860
C405        C  0.19692583  0.55617606  0.29545948     0.38510
C406        C  0.08537180  0.49137052  0.40060229     0.38500
C407        C  0.06613742  0.49963331  0.32551080     0.36930
C408        C  0.22318664  0.53176491  0.36951483     0.36930
N409        N  0.03249262  0.49554103  0.32537766    -0.37890
N410        N  0.25450135  0.54064268  0.37888258    -0.37890
N411        N  0.05901709  0.48647239  0.42192655    -0.37340
N412        N  0.21541814  0.58019185  0.27936311    -0.37340
C413        C  0.16749338  0.22330273  0.49644873    -0.04010
C414        C  0.16479907  0.18734098  0.51772605    -0.01120
C415        C  0.19855936  0.16583418  0.52589628     0.03870
C416        C  0.23064318  0.16449754  0.49897877    -0.04010
C417        C  0.23408587  0.19982032  0.47556183    -0.01110
C418        C  0.20472865  0.22935958  0.47645411     0.03860
C419        C  0.12886929  0.17105028  0.53409451     0.38510
C420        C  0.26880638  0.20915032  0.45178643     0.38500
C421        C  0.21603407  0.26655723  0.45813376     0.36930
C422        C  0.20209490  0.15318663  0.56612495     0.36930
N423        N  0.22805801  0.29534828  0.44398047    -0.37890
N424        N  0.20425908  0.14414760  0.59867630    -0.37890
N425        N  0.29542421  0.21960324  0.43282379    -0.37340
N426        N  0.10250113  0.15513515  0.54915761    -0.37340
C427        C  0.10565256  0.24380848  0.45787598    -0.04010
C428        C  0.11384163  0.24740852  0.41672025    -0.01120
C429        C  0.08227187  0.24895822  0.38832411     0.03870
C430        C  0.04084844  0.24905933  0.40064782    -0.04010
C431        C  0.03764308  0.23662238  0.44151219    -0.01110
C432        C  0.07011859  0.22349642  0.46232926     0.03860
C433        C  0.15324761  0.24334749  0.40162155     0.38510
C434        C  0.00343048  0.23663204  0.46628375     0.38500
C435        C  0.07309655  0.18141612  0.46323230     0.36930
C436        C  0.09564070  0.25164262  0.34785024     0.36930
N437        N  0.07506593  0.14764890  0.46301098    -0.37890
N438        N  0.11043949  0.25520309  0.31722329    -0.37890
N439        N  0.97699645  0.23675682  0.48782775    -0.37340
N440        N  0.18311022  0.24120927  0.38547265    -0.37340
C441        C  0.16395550  0.38078464  0.50362214    -0.04010
C442        C  0.13381043  0.36554639  0.48004556    -0.01120
C443        C  0.13538935  0.32644323  0.46829748     0.03870
C444        C  0.14958838  0.29823575  0.49491917    -0.04010
C445        C  0.17842569  0.31344265  0.52176148    -0.01110
C446        C  0.18800008  0.35418416  0.52257473     0.03860
C447        C  0.10765420  0.39084010  0.45937200     0.38510
C448        C  0.20459422  0.28858234  0.54255877     0.38500
C449        C  0.22330078  0.36838994  0.54139932     0.36930
C450        C  0.14893330  0.32505957  0.42806989     0.36930
N451        N  0.25230364  0.37913126  0.55515035    -0.37890
N452        N  0.16154656  0.32745344  0.39638739    -0.37890
N453        N  0.22898008  0.27159383  0.55779382    -0.37340
N454        N  0.08610147  0.41005615  0.44256868    -0.37340
C455        C  0.25752280  0.03574631  0.59555204    -0.04010
C456        C  0.22551059  0.04363134  0.57004832    -0.01120
C457        C  0.22638007  0.07567964  0.54283315     0.03870
C458        C  0.26001109  0.10142922  0.53762972    -0.04010
C459        C  0.29246980  0.09147693  0.56205712    -0.01110
C460        C  0.29264745  0.05616581  0.58437768     0.03860
C461        C  0.19138530  0.01757098  0.56921161     0.38510
C462        C  0.32806366  0.11472016  0.56600448     0.38500
C463        C  0.33107801  0.04111950  0.59263713     0.36930
C464        C  0.19153235  0.08174747  0.51968759     0.36930
N465        N  0.36342470  0.03342162  0.59749841    -0.37890
N466        N  0.16354685  0.08658373  0.50175988    -0.37890
N467        N  0.35786149  0.12950478  0.57321033    -0.37340
N468        N  0.16325903  0.99826830  0.56712820    -0.37340
C469        C  0.21478633  0.01124915  0.65593613    -0.04010
C470        C  0.19759332  0.98777089  0.68735242    -0.01120
C471        C  0.15653646  0.98921546  0.69556860     0.03870
C472        C  0.13320031  0.01468074  0.67403041    -0.04010
C473        C  0.15213543  0.04407866  0.65151582    -0.01110
C474        C  0.19313170  0.04579424  0.64976499     0.03860
C475        C  0.21993246  0.96712322  0.71592613     0.38510
C476        C  0.13020305  0.07590585  0.63496306     0.38500
C477        C  0.20924568  0.08295632  0.66196586     0.36930
C478        C  0.13807453  0.96270414  0.72403018     0.36930
N479        N  0.21765684  0.11325896  0.67479412    -0.37890
N480        N  0.12332006  0.94149461  0.74660597    -0.37890
N481        N  0.11265858  0.10127622  0.62186219    -0.37340
N482        N  0.23467367  0.95089531  0.74145985    -0.37340
C483        C  0.04044247  0.25202124  0.59637602    -0.04010
C484        C  0.08070228  0.24452039  0.60630304    -0.01120
C485        C  0.11190155  0.24477558  0.57608015     0.03870
C486        C  0.10424801  0.25476601  0.53520596    -0.04010
C487        C  0.06547108  0.26827485  0.53232389    -0.01110
C488        C  0.03616318  0.24981243  0.55554660     0.03860
C489        C  0.09156110  0.23669658  0.64636724     0.38510
C490        C  0.05505413  0.30046369  0.50746704     0.38500
C491        C  0.03120936  0.20963618  0.54345759     0.36930
C492        C  0.15044627  0.23624412  0.58977658     0.36930
N493        N  0.02826985  0.17733636  0.53350151    -0.37890
N494        N  0.17927790  0.22849918  0.60496441    -0.37890
N495        N  0.04565430  0.32629037  0.48799341    -0.37340
N496        N  0.10370833  0.23042547  0.67719986    -0.37340
C497        C  0.99883532  0.21196109  0.64510748    -0.04010
C498        C  0.01436692  0.20214504  0.68322243    -0.01120
C499        C  0.01885604  0.16232146  0.69483337     0.03870
C500        C  0.00438005  0.13189443  0.67138138    -0.04010
C501        C  0.98305787  0.14108038  0.63813341    -0.01110
C502        C  0.98403639  0.17909657  0.62313901     0.03860
C503        C  0.02673235  0.23131889  0.71153420     0.38510
C504        C  0.96120072  0.11050071  0.61717314     0.38500
C505        C  0.96617217  0.18200343  0.58550343     0.36930
C506        C  0.03927823  0.15253799  0.73040583     0.36930
N507        N  0.95006473  0.18192919  0.55611330    -0.37890
N508        N  0.05559229  0.14469799  0.75876164    -0.37890
N509        N  0.94468272  0.08739360  0.59862554    -0.37340
N510        N  0.03664906  0.25335349  0.73533689    -0.37340
C511        C  0.03320708  0.76670294  0.58990229    -0.04010
C512        C  0.07157157  0.78507793  0.59350577    -0.01120
C513        C  0.10345875  0.77579258  0.56731958     0.03870
C514        C  0.09787841  0.75125647  0.53358418    -0.04010
C515        C  0.06028310  0.73252241  0.53285368    -0.01110
C516        C  0.02898014  0.74824247  0.55302252     0.03860
C517        C  0.08047094  0.81364517  0.62410180     0.38510
C518        C  0.05152921  0.69722728  0.51081308     0.38500
C519        C  0.99973801  0.76059249  0.52649902     0.36930
C520        C  0.14151832  0.78242434  0.58379395     0.36930
N521        N  0.97617980  0.77054155  0.50522958    -0.37890
N522        N  0.16929641  0.78795319  0.60211780    -0.37890
N523        N  0.04311870  0.66843799  0.49493777    -0.37340
N524        N  0.08943967  0.83532335  0.64860261    -0.37340
C525        C  0.01017060  0.89391448  0.66187237    -0.04010
C526        C  0.01935372  0.88182121  0.62359546    -0.01120
C527        C  0.00617310  0.84541297  0.61015921     0.03870
C528        C  0.99808507  0.81380958  0.63721338    -0.04010
C529        C  0.99133265  0.82547589  0.67739527    -0.01110
C530        C  0.99598192  0.86552192  0.68889347     0.03860
C531        C  0.04551072  0.90542178  0.59833815     0.38510
C532        C  0.97100972  0.80039177  0.70551634     0.38500
C533        C  0.98417977  0.87770398  0.72802530     0.36930
C534        C  0.00318563  0.84229010  0.56800684     0.36930
N535        N  0.97442888  0.88726713  0.75914239    -0.37890
N536        N  0.00202154  0.84441941  0.53420371    -0.37890
N537        N  0.95290299  0.78378591  0.72951781    -0.37340
N538        N  0.06685984  0.92375565  0.57858843    -0.37340
C539        C  0.75890180  0.04665573  0.60418965    -0.04010
C540        C  0.78771517  0.07554283  0.59080588    -0.01120
C541        C  0.77728436  0.10795976  0.56708245     0.03870
C542        C  0.74522003  0.10633205  0.54097415    -0.04010
C543        C  0.71592160  0.07809383  0.55483329    -0.01110
C544        C  0.72107591  0.05602570  0.59036037     0.03860
C545        C  0.82874106  0.07614711  0.60012377     0.38510
C546        C  0.67625620  0.07703275  0.54112878     0.38500
C547        C  0.68999242  0.06069575  0.61926287     0.36930
C548        C  0.79435997  0.14470692  0.57892416     0.36930
N549        N  0.66459347  0.06605918  0.64130096    -0.37890
N550        N  0.80910617  0.17244165  0.59142521    -0.37890
N551        N  0.64301196  0.07428946  0.53571711    -0.37340
N552        N  0.86195770  0.07969718  0.60523877    -0.37340
C553        C  0.80930226  0.00629952  0.64818260    -0.04010
C554        C  0.82427601  0.03779148  0.67219568    -0.01120
C555        C  0.86471087  0.03991464  0.68275264     0.03870
C556        C  0.89146569  0.01296494  0.66697803    -0.04010
C557        C  0.87679273  0.98163926  0.64494568    -0.01110
C558        C  0.83633123  0.97517169  0.64201075     0.03860
C559        C  0.79912992  0.06956725  0.68395795     0.38510
C560        C  0.90339123  0.95387723  0.62706358     0.38500
C561        C  0.82535201  0.93418409  0.64387236     0.36930
C562        C  0.87948538  0.07217868  0.70609456     0.36930
N563        N  0.82158222  0.90048617  0.64670745    -0.37890
N564        N  0.89142030  0.09803072  0.72457621    -0.37890
N565        N  0.92448982  0.93220103  0.61224570    -0.37340
N566        N  0.77923870  0.09503156  0.69319224    -0.37340
C567        C  0.00293466  0.34908256  0.27518885    -0.04010
C568        C  0.96696562  0.33297160  0.29133228    -0.01120
C569        C  0.96588648  0.30576677  0.32357308     0.03870
C570        C  0.00094602  0.29104587  0.34119291    -0.04010
C571        C  0.03515701  0.31078365  0.32724169    -0.01110
C572        C  0.03672135  0.33119664  0.29071442     0.03860
C573        C  0.93004755  0.33890650  0.27168908     0.38510
C574        C  0.06205864  0.32519556  0.35594139     0.38500
C575        C  0.07443050  0.33378412  0.27122396     0.36930
C576        C  0.92745187  0.30004353  0.34148351     0.36930
N577        N  0.10554977  0.33397413  0.25748280    -0.37890
N578        N  0.89607147  0.29837966  0.35473757    -0.37890
N579        N  0.08265194  0.33832355  0.37918561    -0.37340
N580        N  0.90035266  0.34090521  0.25607655    -0.37340
C581        C  0.09944708  0.47894860  0.24834617    -0.04010
C582        C  0.09824257  0.44406264  0.27244976    -0.01120
C583        C  0.06381563  0.42049582  0.27603841     0.03870
C584        C  0.03705498  0.41678614  0.24490678    -0.04010
C585        C  0.04258803  0.44655752  0.21509434    -0.01110
C586        C  0.07515328  0.47395995  0.21513346     0.03860
C587        C  0.13009508  0.43099678  0.29647016     0.38510
C588        C  0.01726981  0.44774820  0.18136752     0.38500
C589        C  0.08665108  0.48932595  0.17741321     0.36930
C590        C  0.05338472  0.41034988  0.31599322     0.36930
N591        N  0.09193581  0.49633580  0.14456990    -0.37890
N592        N  0.04796536  0.40680895  0.34938344    -0.37890
N593        N  0.00008120  0.44849802  0.15244527    -0.37340
N594        N  0.15226245  0.41772547  0.31780931    -0.37340
C595        C  0.01293862  0.35842128  0.20008715    -0.04010
C596        C  0.99116477  0.32457310  0.18632367    -0.01120
C597        C  0.99024845  0.31537538  0.14532663     0.03870
C598        C  0.01006511  0.33989907  0.11780723    -0.04010
C599        C  0.03810955  0.36657420  0.13248600    -0.01110
C600        C  0.04394134  0.36943257  0.17317841     0.03860
C601        C  0.97547131  0.29479661  0.21268432     0.38510
C602        C  0.06097199  0.39171719  0.10600577     0.38500
C603        C  0.08321924  0.37986062  0.18542917     0.36930
C604        C  0.96779383  0.28177959  0.13159231     0.36930
N605        N  0.11502848  0.38853190  0.19335839    -0.37890
N606        N  0.95023511  0.25464343  0.12081974    -0.37890
N607        N  0.07776834  0.41242949  0.08439509    -0.37340
N608        N  0.96360133  0.26885182  0.23169682    -0.37340
C609        C  0.12163674  0.33903968  0.99748077    -0.04010
C610        C  0.14527794  0.34226412  0.96356409    -0.01120
C611        C  0.18589127  0.34960308  0.96693434     0.03870
C612        C  0.20285924  0.35632552  0.00475504    -0.04010
C613        C  0.18038725  0.34158127  0.03740061    -0.01110
C614        C  0.13971627  0.33446774  0.03391838     0.03860
C615        C  0.12832209  0.33529467  0.92547196     0.38510
C616        C  0.19866980  0.32936143  0.07329194     0.38500
C617        C  0.11683137  0.32022862  0.06740948     0.36930
C618        C  0.21052518  0.34578108  0.93214560     0.36930
N619        N  0.09920312  0.30796754  0.09414142    -0.37890
N620        N  0.23021053  0.34100949  0.90474475    -0.37890
N621        N  0.21074423  0.31793877  0.10260100    -0.37340
N622        N  0.11536220  0.32858824  0.89501986    -0.37340
C623        C  0.99912958  0.35523030  0.71521003    -0.04010
C624        C  0.03523175  0.34167146  0.69806047    -0.01120
C625        C  0.03532677  0.31645039  0.66441881     0.03870
C626        C  0.00354566  0.28925230  0.65773861    -0.04010
C627        C  0.97071682  0.29582639  0.68320136    -0.01110
C628        C  0.96594547  0.33164658  0.70344024     0.03860
C629        C  0.07335663  0.35455147  0.71143560     0.38510
C630        C  0.94736311  0.26384292  0.69940736     0.38500
C631        C  0.92549296  0.34214843  0.71014827     0.36930
C632        C  0.06782214  0.32218636  0.63713660     0.36930
N633        N  0.89275273  0.34947969  0.71397925    -0.37890
N634        N  0.09404011  0.32937243  0.61623004    -0.37890
N635        N  0.92997128  0.24010770  0.71712005    -0.37340
N636        N  0.10498480  0.36436196  0.71883462    -0.37340
C637        C  0.03039874  0.42448537  0.74388802    -0.04010
C638        C  0.04007123  0.45155465  0.77504222    -0.01120
C639        C  0.07161553  0.48013499  0.77200262     0.03870
C640        C  0.09724905  0.48350668  0.73831317    -0.04010
C641        C  0.08540245  0.45887562  0.70623987    -0.01110
C642        C  0.05051342  0.43458835  0.70788223     0.03860
C643        C  0.01719936  0.45372957  0.81101399     0.38510
C644        C  0.10623886  0.45762885  0.66900024     0.38500
C645        C  0.03662449  0.42136519  0.67015213     0.36930
C646        C  0.07876288  0.50482404  0.80604573     0.36930
N647        N  0.03130404  0.41249689  0.63793448    -0.37890
N648        N  0.08345344  0.52299489  0.83423231    -0.37890
N649        N  0.11845740  0.45368068  0.63743555    -0.37340
N650        N  0.00249850  0.45894851  0.84131185    -0.37340
C651        C  0.00136733  0.36606394  0.78970748    -0.04010
C652        C  0.03538984  0.37179802  0.81263000    -0.01120
C653        C  0.03139233  0.37228572  0.85392892     0.03870
C654        C  0.00487538  0.34569600  0.87250230    -0.04010
C655        C  0.98068619  0.32359520  0.84736392    -0.01110
C656        C  0.97540048  0.33634940  0.80750785     0.03860
C657        C  0.06911937  0.35003931  0.80079231     0.38510
C658        C  0.95979847  0.28925677  0.86283793     0.38500
C659        C  0.94108668  0.31980945  0.78968813     0.36930
C660        C  0.05933045  0.39488290  0.87630523     0.36930
N661        N  0.91249022  0.30346338  0.78111798    -0.37890
N662        N  0.08134810  0.41333290  0.89429850    -0.37890
N663        N  0.94324630  0.26182005  0.87510681    -0.37340
N664        N  0.09579443  0.33066366  0.79433694    -0.37340
C665        C  0.87993808  0.33700730  0.99722637    -0.04010
C666        C  0.85486098  0.33010572  0.02993332    -0.01120
C667        C  0.81454459  0.33958419  0.02777006     0.03870
C668        C  0.79992174  0.35817116  0.99325969    -0.04010
C669        C  0.82324549  0.35259344  0.95836166    -0.01110
C670        C  0.86323942  0.34494224  0.96106572     0.03860
C671        C  0.87094949  0.31730183  0.06668679     0.38510
C672        C  0.80740247  0.35093791  0.91917297     0.38500
C673        C  0.88726154  0.34458725  0.92585902     0.36930
C674        C  0.78900165  0.33242437  0.06157024     0.36930
N675        N  0.90531059  0.34411965  0.89705962    -0.37890
N676        N  0.76862939  0.32673252  0.08850436    -0.37890
N677        N  0.79839668  0.34857006  0.88666220    -0.37340
N678        N  0.88336752  0.30743084  0.09640173    -0.37340
C679        C  0.75682615  0.40983339  0.03170255    -0.04010
C680        C  0.72155353  0.42913422  0.04257381    -0.01120
C681        C  0.72229349  0.46565577  0.06203022     0.03870
C682        C  0.74970199  0.47270026  0.09253824    -0.04010
C683        C  0.78252746  0.44759234  0.09024521    -0.01110
C684        C  0.78891126  0.42321378  0.05643420     0.03860
C685        C  0.68672634  0.40708707  0.05381844     0.38510
C686        C  0.81409433  0.45048969  0.11782823     0.38500
C687        C  0.82993516  0.41617199  0.04896642     0.36930
C688        C  0.68959408  0.49098557  0.05520769     0.36930
N689        N  0.86357122  0.41297040  0.04771637    -0.37890
N690        N  0.66261960  0.50987979  0.04937029    -0.37890
N691        N  0.84218273  0.45341898  0.13603779    -0.37340
N692        N  0.65682280  0.39308723  0.06292165    -0.37340
C693        C  0.70251748  0.50469626  0.14441966    -0.04010
C694        C  0.68936533  0.53167687  0.17402601    -0.01120
C695        C  0.64963380  0.53083073  0.18703587     0.03870
C696        C  0.62251748  0.50629655  0.16794803    -0.04010
C697        C  0.63644555  0.47628830  0.14368453    -0.01110
C698        C  0.67657677  0.47195988  0.13846081     0.03860
C699        C  0.71386077  0.56347384  0.18823785     0.38510
C700        C  0.60991301  0.44967151  0.12351390     0.38500
C701        C  0.69024712  0.43206046  0.13634560     0.36930
C702        C  0.63587028  0.55859643  0.21597256     0.36930
N703        N  0.70108971  0.40016071  0.13715419    -0.37890
N704        N  0.62487048  0.58063241  0.23914017    -0.37890
N705        N  0.58876688  0.42910867  0.10666738    -0.37340
N706        N  0.73068482  0.59025273  0.20081274    -0.37340
C707        C  0.50150594  0.71237808  0.13693677    -0.04010
C708        C  0.47074964  0.69477628  0.16069622    -0.01120
C709        C  0.47356143  0.65578251  0.17527463     0.03870
C710        C  0.50385854  0.63161210  0.16193055    -0.04010
C711        C  0.53046410  0.64648584  0.13356876    -0.01110
C712        C  0.52550878  0.68379546  0.11775358     0.03860
C713        C  0.43199544  0.71150591  0.16137650     0.38510
C714        C  0.55789993  0.62075099  0.11414495     0.38500
C715        C  0.53460298  0.68685949  0.07599303     0.36930
C716        C  0.44240375  0.63893372  0.19977779     0.36930
N717        N  0.53983590  0.68914633  0.04254083    -0.37890
N718        N  0.41743708  0.62544134  0.21911831    -0.37890
N719        N  0.57759421  0.60000055  0.09640086    -0.37340
N720        N  0.40108119  0.72460386  0.16287161    -0.37340
C721        C  0.50456241  0.23306539  0.17468911    -0.04010
C722        C  0.47877875  0.23133739  0.20867300    -0.01120
C723        C  0.47658850  0.19789477  0.23440101     0.03870
C724        C  0.50781111  0.17101096  0.23655419    -0.04010
C725        C  0.54034439  0.18163779  0.21182926    -0.01110
C726        C  0.53605234  0.20541010  0.17787211     0.03860
C727        C  0.45798754  0.26509673  0.22267273     0.38510
C728        C  0.58031015  0.17444239  0.22324615     0.38500
C729        C  0.56664494  0.19932197  0.14869917     0.36930
C730        C  0.44398910  0.19482337  0.26205740     0.36930
N731        N  0.59185492  0.19200227  0.12703277    -0.37890
N732        N  0.41750471  0.19436370  0.28356464    -0.37890
N733        N  0.61305012  0.17053266  0.22999240    -0.37340
N734        N  0.44194715  0.29056300  0.23785305    -0.37340
C735        C  0.50410009  0.39150041  0.17309727    -0.04010
C736        C  0.46760701  0.37351425  0.16790051    -0.01120
C737        C  0.46457527  0.33278507  0.16185714     0.03870
C738        C  0.49936767  0.30892934  0.16116065    -0.04010
C739        C  0.53158743  0.32683968  0.18027522    -0.01110
C740        C  0.53618412  0.36805958  0.18099707     0.03860
C741        C  0.43279646  0.39711784  0.17013613     0.38510
C742        C  0.55296454  0.30554945  0.20906173     0.38500
C743        C  0.57318043  0.38586978  0.19213182     0.36930
C744        C  0.42469130  0.31754125  0.16013695     0.36930
N745        N  0.60298076  0.39962934  0.20090580    -0.37890
N746        N  0.39181825  0.30868034  0.16060086    -0.37890
N747        N  0.57237500  0.29144204  0.23240519    -0.37340
N748        N  0.40493778  0.41547785  0.17289818    -0.37340
C749        C  0.22499693  0.51097029  0.16482730    -0.04010
C750        C  0.21395631  0.47973558  0.19161110    -0.01120
C751        C  0.18971940  0.48699950  0.22569027     0.03870
C752        C  0.16145871  0.51771744  0.22635334    -0.04010
C753        C  0.16777228  0.54361523  0.19344923    -0.01110
C754        C  0.20444296  0.54589215  0.17429307     0.03860
C755        C  0.22597891  0.43981875  0.18736176     0.38510
C756        C  0.13764025  0.56079725  0.17020422     0.38500
C757        C  0.22095090  0.58506136  0.17044892     0.36930
C758        C  0.20253349  0.46845773  0.26116562     0.36930
N759        N  0.23259739  0.61712058  0.16907435    -0.37890
N760        N  0.21736672  0.45484578  0.28812338    -0.37890
N761        N  0.11527368  0.57551123  0.15003973    -0.37340
N762        N  0.23208893  0.40660150  0.18742795    -0.37340
C763        C  0.25238813  0.46933793  0.10336866    -0.04010
C764        C  0.23094721  0.46727248  0.06797193    -0.01120
C765        C  0.21557035  0.43105663  0.05703424     0.03870
C766        C  0.24338590  0.40231464  0.05014763    -0.04010
C767        C  0.26803222  0.39935427  0.08395823    -0.01110
C768        C  0.27242480  0.43243913  0.11046624     0.03860
C769        C  0.23929380  0.49313756  0.03548563     0.38510
C770        C  0.28445626  0.36229608  0.09533075     0.38500
C771        C  0.29919274  0.42742184  0.14260088     0.36930
C772        C  0.18309701  0.41887794  0.08224775     0.36930
N773        N  0.32023728  0.42215447  0.16823666    -0.37890
N774        N  0.15825514  0.40940300  0.10387139    -0.37890
N775        N  0.29745337  0.33306597  0.10567861    -0.37340
N776        N  0.24447443  0.51380027  0.00895741    -0.37340
C777        C  0.30105648  0.51013015  0.14277338    -0.04010
C778        C  0.33080748  0.50420186  0.11368016    -0.01120
C779        C  0.36897873  0.49522557  0.12372534     0.03870
C780        C  0.38297055  0.50427186  0.16137378    -0.04010
C781        C  0.35537451  0.51424323  0.19072805    -0.01110
C782        C  0.31467166  0.51541306  0.18215917     0.03860
C783        C  0.32416972  0.51018771  0.07258550     0.38510
C784        C  0.36864165  0.52403874  0.22980332     0.38500
C785        C  0.28919916  0.52670654  0.21392017     0.36930
C786        C  0.39312990  0.47536627  0.09468930     0.36930
N787        N  0.27094854  0.53608545  0.24090123    -0.37890
N788        N  0.41225164  0.45937201  0.07177281    -0.37890
N789        N  0.37901509  0.53201015  0.26099380    -0.37340
N790        N  0.32216883  0.51655959  0.03949291    -0.37340
C791        C  0.72435294  0.00949772  0.33924078    -0.04010
C792        C  0.70536074  0.97375373  0.32671712    -0.01120
C793        C  0.67931491  0.97227984  0.29397523     0.03870
C794        C  0.66593944  0.00668286  0.27462963    -0.04010
C795        C  0.68746349  0.04154602  0.28439282    -0.01110
C796        C  0.71330415  0.04350136  0.31711150     0.03860
C797        C  0.71353166  0.93616154  0.34420809     0.38510
C798        C  0.68408849  0.07649848  0.26021039     0.38500
C799        C  0.72285478  0.08266887  0.33045798     0.36930
C800        C  0.67113164  0.93374751  0.27776368     0.36930
N801        N  0.72675252  0.11473227  0.34083055    -0.37890
N802        N  0.66650044  0.90186474  0.26713011    -0.37890
N803        N  0.68253332  0.10479192  0.24156622    -0.37340
N804        N  0.71783678  0.90427696  0.35470446    -0.37340
C805        C  0.54458386  0.10703241  0.25723176    -0.04010
C806        C  0.57617654  0.10311899  0.28415694    -0.01120
C807        C  0.59737710  0.06783022  0.28502495     0.03870
C808        C  0.60389218  0.04621952  0.24956443    -0.04010
C809        C  0.58911423  0.06800505  0.21700350    -0.01110
C810        C  0.55334617  0.08831713  0.22093307     0.03860
C811        C  0.59133757  0.13616094  0.30678156     0.38510
C812        C  0.61534687  0.08211259  0.18577680     0.38500
C813        C  0.53368455  0.09673470  0.18489568     0.36930
C814        C  0.61520711  0.06044309  0.32188361     0.36930
N815        N  0.52194260  0.10188514  0.15370406    -0.37890
N816        N  0.62828186  0.06026375  0.35282099    -0.37890
N817        N  0.63575773  0.09392903  0.16082665    -0.37340
N818        N  0.60418338  0.16203800  0.32464716    -0.37340
C819        C  0.64387074  0.00560977  0.19911863    -0.04010
C820        C  0.68385434  0.00897629  0.18449177    -0.01120
C821        C  0.69201124  0.01103389  0.14331358     0.03870
C822        C  0.66261813  0.00124432  0.11650570    -0.04010
C823        C  0.62633978  0.98848396  0.13137826    -0.01110
C824        C  0.61502810  0.99972243  0.16870496     0.03860
C825        C  0.71774381  0.01142866  0.20907361     0.38510
C826        C  0.59949154  0.96435949  0.10824423     0.38500
C827        C  0.57291781  0.00298893  0.17313949     0.36930
C828        C  0.73080049  0.02221383  0.12880684     0.36930
N829        N  0.53939762  0.00598913  0.17181361    -0.37890
N830        N  0.76177454  0.03117603  0.11740533    -0.37890
N831        N  0.57780218  0.94589244  0.08986175    -0.37340
N832        N  0.74658430  0.01429866  0.22618904    -0.37340
C833        C  0.65546764  0.28840933  0.99327151    -0.04010
C834        C  0.69543492  0.27697197  0.98936559    -0.01120
C835        C  0.72802612  0.30461523  0.99034802     0.03870
C836        C  0.72335410  0.34700258  0.99267335    -0.04010
C837        C  0.68329696  0.35773411  0.98690195    -0.01110
C838        C  0.65162442  0.32956965  0.98456000     0.03860
C839        C  0.70441888  0.23778709  0.97547762     0.38510
C840        C  0.67319376  0.39812292  0.97718202     0.38500
C841        C  0.62015422  0.34350980  0.96068828     0.36930
C842        C  0.76559577  0.28652722  0.98353712     0.36930
N843        N  0.59826108  0.35852446  0.94023908    -0.37890
N844        N  0.79402342  0.26950450  0.97772575    -0.37890
N845        N  0.66267039  0.42925231  0.96992680    -0.37340
N846        N  0.71323961  0.20748084  0.96347809    -0.37340
C847        C  0.59240385  0.25939908  0.03941972    -0.04010
C848        C  0.55776687  0.23520660  0.04409315    -0.01120
C849        C  0.53398881  0.23474313  0.07835611     0.03870
C850        C  0.53839560  0.26275262  0.10889823    -0.04010
C851        C  0.57647691  0.28218505  0.10766186    -0.01110
C852        C  0.60127022  0.28264287  0.07283909     0.03860
C853        C  0.54364734  0.21063597  0.01310175     0.38510
C854        C  0.59894224  0.28636769  0.14284490     0.38500
C855        C  0.63885391  0.30280193  0.07471589     0.36930
C856        C  0.50829740  0.20067375  0.08453576     0.36930
N857        N  0.66963761  0.31685863  0.07845229    -0.37890
N858        N  0.49027088  0.17200052  0.08913854    -0.37890
N859        N  0.62191293  0.28776917  0.16742514    -0.37340
N860        N  0.53034028  0.19016880  0.98989589    -0.37340
C861        C  0.64028637  0.12871147  0.00781399    -0.04010
C862        C  0.60895148  0.14444797  0.98790678    -0.01120
C863        C  0.61348900  0.18269715  0.97422067     0.03870
C864        C  0.63052236  0.21195461  0.99949018    -0.04010
C865        C  0.65408887  0.19566850  0.03031023    -0.01110
C866        C  0.66278619  0.15487212  0.03050303     0.03860
C867        C  0.57554655  0.12086371  0.97581628     0.38510
C868        C  0.67293990  0.21963299  0.05963693     0.38500
C869        C  0.69218564  0.13955408  0.05625647     0.36930
C870        C  0.62181509  0.18091356  0.93273688     0.36930
N871        N  0.71557727  0.12726713  0.07684967    -0.37890
N872        N  0.62887401  0.17584167  0.89984919    -0.37890
N873        N  0.69001769  0.23588897  0.08390972    -0.37340
N874        N  0.54805086  0.10242722  0.96773381    -0.37340
C875        C  0.66651202  0.00094356  0.72209494    -0.04010
C876        C  0.66927589  0.97547464  0.68972628    -0.01120
C877        C  0.69410833  0.98542539  0.65778996     0.03870
C878        C  0.73288364  0.00058703  0.66391295    -0.04010
C879        C  0.73872096  0.00702072  0.70507674    -0.01110
C880        C  0.70600479  0.01491461  0.73118593     0.03860
C881        C  0.66321763  0.93358525  0.69546348     0.38510
C882        C  0.77333620  0.99216130  0.72363038     0.38500
C883        C  0.71740725  0.03074474  0.76861755     0.36930
C884        C  0.67798832  0.97539108  0.62080814     0.36930
N885        N  0.73080940  0.04168479  0.79767149    -0.37890
N886        N  0.66017252  0.96620911  0.59396265    -0.37890
N887        N  0.80022348  0.97973602  0.73925181    -0.37340
N888        N  0.65786264  0.90012627  0.69900842    -0.37340
C889        C  0.59986536  0.04268383  0.73714378    -0.04010
C890        C  0.61268135  0.08128109  0.74668273    -0.01120
C891        C  0.58500628  0.10976758  0.76047854     0.03870
C892        C  0.54664832  0.11000222  0.74473907    -0.04010
C893        C  0.54069940  0.07963400  0.71660776    -0.01110
C894        C  0.56110756  0.04417828  0.72050394     0.03860
C895        C  0.65165516  0.09400667  0.73454824     0.38510
C896        C  0.50896848  0.08154803  0.68798694     0.38500
C897        C  0.53775711  0.01273407  0.70638888     0.36930
C898        C  0.59716384  0.13746687  0.78940554     0.36930
N899        N  0.51553207  0.99245338  0.69103352    -0.37890
N900        N  0.60815543  0.15772994  0.81407858    -0.37890
N901        N  0.48418643  0.08224794  0.66528869    -0.37340
N902        N  0.68244191  0.10488053  0.72427508    -0.37340
C903        C  0.65099957  0.00772102  0.87680379    -0.04010
C904        C  0.67032980  0.98008230  0.85306874    -0.01120
C905        C  0.66129472  0.97711938  0.81239118     0.03870
C906        C  0.63955237  0.00730293  0.79336084    -0.04010
C907        C  0.63163478  0.04016515  0.81824050    -0.01110
C908        C  0.62626010  0.03402649  0.85837934     0.03860
C909        C  0.69792246  0.95381493  0.87056526     0.38510
C910        C  0.65645891  0.07506793  0.81515057     0.38500
C911        C  0.60565259  0.06342280  0.88046709     0.36930
C912        C  0.67512535  0.94329358  0.79143829     0.36930
N913        N  0.58919359  0.08805192  0.89633493    -0.37890
N914        N  0.68734905  0.91538519  0.77708334    -0.37890
N915        N  0.67648471  0.10287930  0.81586491    -0.37340
N916        N  0.71999639  0.93285166  0.88445714    -0.37340
C917        C  0.54031259  0.76663364  0.09662695    -0.04010
C918        C  0.54382621  0.79788152  0.06928766    -0.01120
C919        C  0.57946339  0.80365890  0.04729698     0.03870
C920        C  0.60495111  0.77168691  0.03860220    -0.04010
C921        C  0.60478123  0.74502967  0.07151310    -0.01110
C922        C  0.57751206  0.74922586  0.10348919     0.03860
C923        C  0.51867990  0.83110597  0.07299387     0.38510
C924        C  0.62502738  0.70889645  0.07295706     0.38500
C925        C  0.58728301  0.73415472  0.14211485     0.36930
C926        C  0.59456219  0.84362694  0.04708254     0.36930
N927        N  0.59518437  0.72236968  0.17280057    -0.37890
N928        N  0.60411657  0.87624274  0.04897314    -0.37890
N929        N  0.63489514  0.67705598  0.07721596    -0.37340
N930        N  0.50283340  0.86054386  0.07560689    -0.37340
C931        C  0.67339964  0.89231868  0.99293213    -0.04010
C932        C  0.68632436  0.86787997  0.02330436    -0.01120
C933        C  0.67515552  0.82749218  0.02362121     0.03870
C934        C  0.65235769  0.81132738  0.99233956    -0.04010
C935        C  0.65043685  0.83539758  0.95775179    -0.01110
C936        C  0.65540933  0.87578504  0.96033589     0.03860
C937        C  0.70598644  0.88519469  0.05658033     0.38510
C938        C  0.64949764  0.82120225  0.91787689     0.38500
C939        C  0.63862272  0.90033196  0.93017202     0.36930
C940        C  0.68535604  0.80354213  0.05699861     0.36930
N941        N  0.62346182  0.91887181  0.90663111    -0.37890
N942        N  0.69372525  0.78458073  0.08366649    -0.37890
N943        N  0.65029591  0.81446792  0.88459523    -0.37340
N944        N  0.72144410  0.89913756  0.08323883    -0.37340
C945        C  0.99319328  0.66983033  0.27935050    -0.04010
C946        C  0.01334127  0.70662511  0.27333049    -0.01120
C947        C  0.00483833  0.73929465  0.29761141     0.03870
C948        C  0.99724064  0.73396786  0.33892544    -0.04010
C949        C  0.98857192  0.69370818  0.34854075    -0.01110
C950        C  0.97775228  0.66611834  0.31879723     0.03860
C951        C  0.04172083  0.71396745  0.24219924     0.38510
C952        C  0.99032270  0.67930906  0.38829410     0.38500
C953        C  0.94899385  0.63643668  0.33057763     0.36930
C954        C  0.99953804  0.77577019  0.27671584     0.36930
N955        N  0.92568005  0.61356875  0.34129427    -0.37890
N956        N  0.99483389  0.80394084  0.25850467    -0.37890
N957        N  0.99406023  0.66488220  0.41864092    -0.37340
N958        N  0.06468028  0.72397182  0.21878320    -0.37340
C959        C  0.03707172  0.61530970  0.25481690    -0.04010
C960        C  0.07030054  0.61697890  0.22784981    -0.01120
C961        C  0.10382266  0.59351977  0.23463642     0.03870
C962        C  0.10045061  0.56029033  0.25957120    -0.04010
C963        C  0.08182566  0.57532682  0.29406082    -0.01110
C964        C  0.04675991  0.59607080  0.29100932     0.03860
C965        C  0.07342253  0.64289595  0.19420397     0.38510
C966        C  0.10571705  0.58838306  0.32665713     0.38500
C967        C  0.02202661  0.59196567  0.32538805     0.36930
C968        C  0.14087610  0.61510675  0.23378267     0.36930
N969        N  0.00618889  0.58512092  0.35495575    -0.37890
N970        N  0.16946796  0.63384075  0.23309028    -0.37890
N971        N  0.12431016  0.59955064  0.35256921    -0.37340
N972        N  0.07723390  0.66186889  0.16611781    -0.37340
C973        C  0.98662859  0.66533347  0.11911617    -0.04010
C974        C  0.98284622  0.62658770  0.13315284    -0.01120
C975        C  0.99243111  0.61813319  0.17190741     0.03870
C976        C  0.98969156  0.64712444  0.20249744    -0.04010
C977        C  0.97911699  0.68534490  0.18791974    -0.01110
C978        C  0.98391913  0.69518402  0.14729508     0.03860
C979        C  0.96996267  0.59434325  0.10813995     0.38510
C980        C  0.95883070  0.71400883  0.21105693     0.38500
C981        C  0.98290879  0.73575206  0.13470121     0.36930
C982        C  0.01197988  0.58133042  0.17519272     0.36930
N983        N  0.98209490  0.76818528  0.12483722    -0.37890
N984        N  0.02857422  0.55230627  0.17279925    -0.37890
N985        N  0.94170759  0.73859050  0.22646242    -0.37340
N986        N  0.95957305  0.56857811  0.08863784    -0.37340
C987        C  0.25022897  0.54819229  0.10194834    -0.04010
C988        C  0.27583249  0.58266597  0.10025023    -0.01120
C989        C  0.26609227  0.61608034  0.07732575     0.03870
C990        C  0.23763763  0.61339689  0.04776553    -0.04010
C991        C  0.20627551  0.58818968  0.06068187    -0.01110
C992        C  0.21301457  0.55471110  0.08436373     0.03860
C993        C  0.30895774  0.58874280  0.12587251     0.38510
C994        C  0.16714244  0.60320951  0.06460695     0.38500
C995        C  0.18011272  0.52774378  0.09048880     0.36930
C996        C  0.27681169  0.65415728  0.09304965     0.36930
N997        N  0.15382166  0.50605428  0.09323472    -0.37890
N998        N  0.28573225  0.68323067  0.10815764    -0.37890
N999        N  0.13522439  0.61273449  0.06982848    -0.37340
N1000       N  0.33552526  0.59573047  0.14548822    -0.37340
C1001       C  0.19921056  0.65697964  0.99985590    -0.04010
C1002       C  0.17858127  0.65558229  0.96361457    -0.01120
C1003       C  0.13779146  0.65975041  0.96350919     0.03870
C1004       C  0.11833507  0.67368801  0.99700396    -0.04010
C1005       C  0.14055981  0.68799055  0.02831118    -0.01110
C1006       C  0.18096466  0.68003024  0.02983884     0.03860
C1007       C  0.19902690  0.65463682  0.92596447     0.38510
C1008       C  0.12120479  0.70771680  0.06069688     0.38500
C1009       C  0.20229482  0.69711888  0.06192340     0.36930
C1010       C  0.11609011  0.65018575  0.92859189     0.36930
N1011       N  0.21581231  0.71402011  0.08790165    -0.37890
N1012       N  0.09909394  0.64215593  0.90062183    -0.37890
N1013       N  0.10573752  0.72328629  0.08652763    -0.37340
N1014       N  0.21481219  0.65476661  0.89570058    -0.37340
C1015       C  0.66262270  0.73560123  0.99459690    -0.04010
C1016       C  0.65321940  0.69448642  0.99576213    -0.01120
C1017       C  0.68234308  0.66474767  0.00012920     0.03870
C1018       C  0.72345022  0.67380510  0.99922569    -0.04010
C1019       C  0.73202522  0.71540830  0.99895410    -0.01110
C1020       C  0.70368789  0.74320283  0.98914184     0.03860
C1021       C  0.61401237  0.68093857  0.98780499     0.38510
C1022       C  0.76842974  0.73344526  0.01182940     0.38500
C1023       C  0.71919302  0.77635370  0.96642574     0.36930
C1024       C  0.66904142  0.62408328  0.00368340     0.36930
N1025       N  0.73339091  0.80179917  0.94829711    -0.37890
N1026       N  0.65786210  0.59192245  0.00612194    -0.37890
N1027       N  0.79637706  0.75020236  0.02168261    -0.37340
N1028       N  0.58445425  0.66679632  0.97924309    -0.37340
C1029       C  0.74847229  0.54605078  0.09354574    -0.04010
C1030       C  0.78275273  0.55113373  0.06887809    -0.01120
C1031       C  0.78565133  0.58004490  0.03830234     0.03870
C1032       C  0.75592170  0.60879256  0.03248080    -0.04010
C1033       C  0.72868206  0.60978762  0.06406917    -0.01110
C1034       C  0.72050573  0.57649737  0.08812523     0.03860
C1035       C  0.81797769  0.52930387  0.07572459     0.38510
C1036       C  0.71674012  0.64712585  0.07955844     0.38500
C1037       C  0.68172027  0.57614727  0.10457735     0.36930
C1038       C  0.82313506  0.58208468  0.01743296     0.36930
N1039       N  0.64999993  0.57872591  0.11607332    -0.37890
N1040       N  0.85407165  0.58188027  0.00315933    -0.37890
N1041       N  0.70997361  0.67700152  0.09375377    -0.37340
N1042       N  0.84855725  0.51583226  0.07857053    -0.37340
C1043       C  0.79800568  0.66097590  0.99731845    -0.04010
C1044       C  0.81650308  0.67755449  0.96315159    -0.01120
C1045       C  0.85745246  0.68488322  0.96255908     0.03870
C1046       C  0.87933749  0.67670743  0.99617459    -0.04010
C1047       C  0.86005385  0.66934307  0.03188080    -0.01110
C1048       C  0.81933449  0.66561246  0.03300459     0.03860
C1049       C  0.79376706  0.68757720  0.92912737     0.38510
C1050       C  0.88189780  0.66583557  0.06795185     0.38500
C1051       C  0.80099156  0.67343309  0.07051752     0.36930
C1052       C  0.87723612  0.69887433  0.92715173     0.36930
N1053       N  0.79066495  0.68315017  0.10138063    -0.37890
N1054       N  0.89316754  0.71015078  0.89899093    -0.37890
N1055       N  0.89834853  0.66280161  0.09714731    -0.37340
N1056       N  0.77575962  0.69586566  0.90198500    -0.37340
C1057       C  0.99981028  0.67275106  0.71870878    -0.04010
C1058       C  0.03416742  0.69291470  0.70346307    -0.01120
C1059       C  0.03329501  0.72314036  0.67371876     0.03870
C1060       C  0.99796099  0.73659944  0.65615393    -0.04010
C1061       C  0.96324314  0.71846846  0.67403379    -0.01110
C1062       C  0.96438353  0.68942498  0.70502773     0.03860
C1063       C  0.07216299  0.68724503  0.72098625     0.38510
C1064       C  0.92425632  0.73196102  0.66491417     0.38500
C1065       C  0.92776010  0.68292989  0.72593688     0.36930
C1066       C  0.07131319  0.74005021  0.66459577     0.36930
N1067       N  0.89643765  0.68299693  0.73930887    -0.37890
N1068       N  0.10433134  0.74830650  0.66271366    -0.37890
N1069       N  0.89224384  0.74091491  0.65999275    -0.37340
N1070       N  0.10413195  0.68660193  0.73157696    -0.37340
C1071       C  0.04275745  0.61386968  0.74364274    -0.04010
C1072       C  0.05253771  0.59600075  0.70754822    -0.01120
C1073       C  0.08008575  0.56510481  0.70585779     0.03870
C1074       C  0.10556998  0.55614202  0.73819019    -0.04010
C1075       C  0.10406877  0.58444754  0.76899857    -0.01110
C1076       C  0.07411769  0.61283972  0.77140326     0.03860
C1077       C  0.03048367  0.60528479  0.67279197     0.38510
C1078       C  0.13387359  0.58895496  0.79795051     0.38500
C1079       C  0.08080487  0.64498446  0.79900394     0.36930
C1080       C  0.08074121  0.54351211  0.66935841     0.36930
N1081       N  0.08799065  0.67044112  0.82023831    -0.37890
N1082       N  0.07885091  0.52918107  0.63873329    -0.37890
N1083       N  0.15488851  0.59890510  0.82232785    -0.37340
N1084       N  0.01265838  0.61148415  0.64502409    -0.37340
C1085       C  0.00170234  0.64930138  0.79488068    -0.04010
C1086       C  0.00203874  0.68888443  0.80935712    -0.01120
C1087       C  0.99988942  0.69658027  0.85034455     0.03870
C1088       C  0.00372846  0.66605541  0.87789804    -0.04010
C1089       C  0.00855364  0.62748238  0.86379549    -0.01110
C1090       C  0.00316708  0.61880738  0.82418693     0.03860
C1091       C  0.00922575  0.72258815  0.78446450     0.38510
C1092       C  0.02095397  0.59575375  0.88936844     0.38500
C1093       C  0.00048345  0.57735396  0.81480713     0.36930
C1094       C  0.99448059  0.73639286  0.86389567     0.36930
N1095       N  0.99731329  0.54390079  0.81047773    -0.37890
N1096       N  0.99003680  0.76816331  0.87452200    -0.37890
N1097       N  0.03090032  0.57035711  0.90919725    -0.37340
N1098       N  0.01696952  0.75092730  0.76709084    -0.37340
C1099       C  0.33895633  0.01201047  0.27776254    -0.04010
C1100       C  0.30355112  0.03334903  0.27423061    -0.01120
C1101       C  0.27064650  0.02562764  0.29985917     0.03870
C1102       C  0.27573510  0.00924787  0.33863968    -0.04010
C1103       C  0.31539436  0.00170691  0.34667841    -0.01110
C1104       C  0.34237356  0.99390207  0.31567050     0.03860
C1105       C  0.29835212  0.06194967  0.24314848     0.38510
C1106       C  0.32949830  0.00125661  0.38659264     0.38500
C1107       C  0.37104173  0.96530624  0.32538345     0.36930
C1108       C  0.23364416  0.03941803  0.28545651     0.36930
N1109       N  0.39183664  0.94185893  0.33697019    -0.37890
N1110       N  0.20552584  0.05092261  0.27132886    -0.37890
N1111       N  0.34192465  0.00070371  0.41793660    -0.37340
N1112       N  0.29112345  0.08432580  0.21888192    -0.37340
C1113       C  0.40045751  0.05223426  0.25643345    -0.04010
C1114       C  0.40455258  0.08646599  0.23307835    -0.01120
C1115       C  0.44231936  0.10470639  0.22874713     0.03870
C1116       C  0.46649063  0.10869619  0.26263194    -0.04010
C1117       C  0.44602732  0.09240180  0.29612264    -0.01110
C1118       C  0.42223531  0.05796706  0.29199963     0.03860
C1119       C  0.37492268  0.11512396  0.24162833     0.38510
C1120       C  0.43301209  0.11843448  0.32715000     0.38500
C1121       C  0.41711047  0.03667600  0.32813294     0.36930
C1122       C  0.44912435  0.12566315  0.19262293     0.36930
N1123       N  0.41642409  0.02428298  0.35981006    -0.37890
N1124       N  0.45290383  0.14203524  0.16303492    -0.37890
N1125       N  0.42193171  0.13897840  0.35164606    -0.37340
N1126       N  0.35224179  0.13877964  0.24896445    -0.37340
C1127       C  0.35363656  0.01779849  0.20088856    -0.04010
C1128       C  0.37199976  0.04031039  0.17014016    -0.01120
C1129       C  0.37334401  0.02489806  0.13255516     0.03870
C1130       C  0.33828361  0.00801720  0.11840688    -0.04010
C1131       C  0.31161426  0.99236641  0.14648460    -0.01110
C1132       C  0.32072446  0.99409957  0.18732287     0.03860
C1133       C  0.36219304  0.08111766  0.16563151     0.38510
C1134       C  0.27624546  0.97251788  0.13334286     0.38500
C1135       C  0.29216315  0.97585622  0.21351144     0.36930
C1136       C  0.40519494  0.03839960  0.10685820     0.36930
N1137       N  0.26700789  0.96205887  0.23237937    -0.37890
N1138       N  0.43078272  0.04905821  0.08662074    -0.37890
N1139       N  0.24803617  0.95669753  0.12289557    -0.37340
N1140       N  0.35528166  0.11368447  0.16001205    -0.37340
C1141       C  0.34205593  0.28555350  0.01578606    -0.04010
C1142       C  0.30148043  0.27518580  0.01233141    -0.01120
C1143       C  0.27195076  0.30327436  0.00434127     0.03870
C1144       C  0.27841541  0.34535569  0.00818723    -0.04010
C1145       C  0.31801981  0.35553196  0.01775080    -0.01110
C1146       C  0.34745450  0.32673606  0.02453330     0.03860
C1147       C  0.28657635  0.23676604  0.02440748     0.38510
C1148       C  0.32883223  0.39649143  0.02450792     0.38500
C1149       C  0.37631676  0.33952368  0.05250757     0.36930
C1150       C  0.23545063  0.28521502  0.99164845     0.36930
N1151       N  0.39689387  0.35229337  0.07612560    -0.37890
N1152       N  0.20765118  0.26799210  0.98210139    -0.37890
N1153       N  0.33792472  0.42890371  0.02939076    -0.37340
N1154       N  0.27158456  0.20754268  0.03418297    -0.37340
C1155       C  0.46470399  0.26542140  0.11116240    -0.04010
C1156       C  0.42763371  0.24507143  0.11553546    -0.01120
C1157       C  0.39752447  0.25015009  0.08693068     0.03870
C1158       C  0.40710990  0.26048352  0.04744293    -0.04010
C1159       C  0.44189286  0.28464878  0.04446713    -0.01110
C1160       C  0.46659266  0.29053778  0.07729600     0.03860
C1161       C  0.41597775  0.22431130  0.15089020     0.38510
C1162       C  0.44595540  0.31353796  0.01343847     0.38500
C1163       C  0.48884372  0.32724068  0.07921975     0.36930
C1164       C  0.35669351  0.24574441  0.09886037     0.36930
N1165       N  0.50370440  0.35783083  0.08241735    -0.37890
N1166       N  0.32438370  0.24229920  0.10907709    -0.37890
N1167       N  0.44684659  0.33965028  0.99181413    -0.37340
N1168       N  0.40261005  0.20783763  0.17781424    -0.37340
C1169       C  0.36023123  0.20926040  0.00790016    -0.04010
C1170       C  0.35772056  0.18073643  0.03951530    -0.01120
C1171       C  0.33289046  0.14773080  0.03673667     0.03870
C1172       C  0.32752562  0.13105275  0.00029000    -0.04010
C1173       C  0.33404689  0.15420517  0.96699093    -0.01110
C1174       C  0.34407965  0.19447609  0.97134396     0.03860
C1175       C  0.38822893  0.17277825  0.06668414     0.38510
C1176       C  0.32951625  0.13673540  0.92846566     0.38500
C1177       C  0.33555015  0.21832634  0.93765695     0.36930
C1178       C  0.31723861  0.12763529  0.07131698     0.36930
N1179       N  0.32632432  0.23315453  0.90876234    -0.37890
N1180       N  0.30266302  0.11122751  0.09762643    -0.37890
N1181       N  0.32628344  0.12263727  0.89782824    -0.37340
N1182       N  0.41067917  0.16181490  0.08891679    -0.37340
C1183       C  0.27399897  0.67102198  0.00419309    -0.04010
C1184       C  0.31354265  0.66551504  0.01692200    -0.01120
C1185       C  0.33987704  0.69780280  0.02404399     0.03870
C1186       C  0.33329516  0.73653340  0.00960530    -0.04010
C1187       C  0.29268904  0.74248709  0.00719646    -0.01110
C1188       C  0.26655432  0.71191952  0.99589154     0.03860
C1189       C  0.32893449  0.62692162  0.02486699     0.38510
C1190       C  0.27519671  0.77360337  0.02980139     0.38500
C1191       C  0.23448517  0.72599353  0.97295730     0.36930
C1192       C  0.35858717  0.69394623  0.06149905     0.36930
N1193       N  0.20982069  0.73954160  0.95478779    -0.37890
N1194       N  0.37066779  0.68937488  0.09261450    -0.37890
N1195       N  0.26060529  0.79795441  0.04804889    -0.37340
N1196       N  0.34307260  0.59705470  0.03068721    -0.37340
C1197       C  0.39931960  0.76471632  0.03600218    -0.04010
C1198       C  0.39813914  0.78299066  0.07372808    -0.01120
C1199       C  0.43276935  0.78723011  0.09645215     0.03870
C1200       C  0.46311039  0.75894564  0.09415864    -0.04010
C1201       C  0.45348248  0.72841641  0.06575066    -0.01110
C1202       C  0.42790077  0.73507737  0.03381033     0.03860
C1203       C  0.36140244  0.79512495  0.09105507     0.38510
C1204       C  0.45380294  0.68685130  0.07535637     0.38500
C1205       C  0.42546400  0.70450423  0.00442849     0.36930
C1206       C  0.43679216  0.82380103  0.11694696     0.36930
N1207       N  0.42338564  0.67676245  0.98516571    -0.37890
N1208       N  0.43866047  0.85504547  0.12991417    -0.37890
N1209       N  0.45161495  0.65334349  0.08088735    -0.37340
N1210       N  0.33229479  0.80466026  0.10545022    -0.37340
C1211       C  0.34976871  0.81377594  0.00458067    -0.04010
C1212       C  0.31826887  0.82650892  0.98017727    -0.01120
C1213       C  0.30499182  0.86561766  0.98215336     0.03870
C1214       C  0.32325525  0.89255784  0.00735724    -0.04010
C1215       C  0.35247995  0.87992472  0.03217176    -0.01110
C1216       C  0.37049153  0.84491234  0.02373353     0.03860
C1217       C  0.30407784  0.80293845  0.94786901     0.38510
C1218       C  0.36915218  0.90572582  0.06171883     0.38500
C1219       C  0.41269452  0.84848766  0.02184172     0.36930
C1220       C  0.27532568  0.87913804  0.95562634     0.36930
N1221       N  0.44585019  0.85508443  0.01888828    -0.37890
N1222       N  0.25175975  0.88997985  0.93441780    -0.37890
N1223       N  0.38276972  0.92570406  0.08545773    -0.37340
N1224       N  0.29173813  0.78622759  0.92116240    -0.37340
C1225       C  0.35264262  0.00398228  0.72204508    -0.04010
C1226       C  0.34533084  0.03610557  0.69620913    -0.01120
C1227       C  0.30991782  0.03824676  0.67459065     0.03870
C1228       C  0.28935930  0.00353947  0.66145030    -0.04010
C1229       C  0.30089686  0.96891126  0.68162446    -0.01110
C1230       C  0.32809235  0.97003550  0.71352119     0.03860
C1231       C  0.37511838  0.06511926  0.68533133     0.38510
C1232       C  0.28185201  0.93134868  0.67322839     0.38500
C1233       C  0.32849436  0.93453731  0.73670235     0.36930
C1234       C  0.29860726  0.07760730  0.66468473     0.36930
N1235       N  0.32456658  0.90401766  0.75129580    -0.37890
N1236       N  0.29446483  0.11027834  0.65696785    -0.37890
N1237       N  0.26567046  0.90147036  0.66971001    -0.37340
N1238       N  0.39744388  0.08876284  0.67420470    -0.37340
C1239       C  0.47348781  0.10892025  0.75910962    -0.04010
C1240       C  0.43209500  0.11444570  0.75574075    -0.01120
C1241       C  0.40426757  0.08181103  0.76056743     0.03870
C1242       C  0.41600624  0.04151297  0.75781921    -0.04010
C1243       C  0.45739920  0.03801143  0.76437132    -0.01110
C1244       C  0.48079906  0.07100119  0.77454317     0.03860
C1245       C  0.41562734  0.15287919  0.75419429     0.38510
C1246       C  0.47749645  0.00158509  0.76862117     0.38500
C1247       C  0.51135251  0.06587240  0.80342007     0.36930
C1248       C  0.36366865  0.09104058  0.76823117     0.36930
N1249       N  0.53508656  0.06137439  0.82667385    -0.37890
N1250       N  0.33208159  0.10111387  0.77428377    -0.37890
N1251       N  0.49595184  0.97429944  0.77440246    -0.37340
N1252       N  0.39772556  0.18124360  0.75447508    -0.37340
C1253       C  0.36424753  0.00586651  0.80005320    -0.04010
C1254       C  0.38717373  0.00070813  0.83469454    -0.01120
C1255       C  0.36936361  0.99044713  0.87037448     0.03870
C1256       C  0.33163160  0.00302163  0.87924467    -0.04010
C1257       C  0.30816556  0.01423159  0.84795406    -0.01110
C1258       C  0.32305198  0.01281685  0.80833863     0.03860
C1259       C  0.42902173  0.00396532  0.83771896     0.38510
C1260       C  0.26902838  0.02754842  0.85657702     0.38500
C1261       C  0.29543692  0.02286406  0.77847502     0.36930
C1262       C  0.39130747  0.96753519  0.89869821     0.35010
N1263       N  0.27188534  0.03217745  0.75651535    -0.37890
N1264       N  0.40967234  0.95023976  0.92079633    -0.37890
N1265       N  0.23782334  0.03827279  0.86346599    -0.37340
N1266       N  0.46115634  0.00605173  0.84781226    -0.37340
C1267       C  0.53314673  0.75899411  0.90814427    -0.04010
C1268       C  0.57236849  0.74718567  0.89751885    -0.01120
C1269       C  0.60350736  0.74741052  0.92577200     0.03870
C1270       C  0.59895821  0.76692521  0.96263392    -0.04010
C1271       C  0.56432618  0.78848885  0.96477770    -0.01110
C1272       C  0.53114820  0.77461734  0.94660276     0.03860
C1273       C  0.58234699  0.73404212  0.85850004     0.38510
C1274       C  0.56406889  0.83053839  0.97033723     0.38500
C1275       C  0.49795349  0.77818575  0.97142206     0.36930
C1276       C  0.64219847  0.73656960  0.91240143     0.36930
N1277       N  0.47476655  0.78540584  0.99478120    -0.37890
N1278       N  0.67328789  0.73166015  0.89969628    -0.37890
N1279       N  0.56119405  0.86416849  0.97298648    -0.37340
N1280       N  0.59468571  0.72310529  0.82884430    -0.37340
C1281       C  0.45369811  0.76094230  0.90218009    -0.04010
C1282       C  0.42303210  0.73084127  0.91133124    -0.01120
C1283       C  0.38926669  0.73893943  0.93486961     0.03870
C1284       C  0.38872054  0.77126077  0.95950502    -0.04010
C1285       C  0.40913167  0.80389152  0.94124357    -0.01110
C1286       C  0.44224721  0.79891770  0.91594756     0.03860
C1287       C  0.42383685  0.68944799  0.90222830     0.38510
C1288       C  0.39067421  0.84142836  0.93644345     0.38500
C1289       C  0.46618183  0.83418799  0.91228082     0.36930
C1290       C  0.35213526  0.72063880  0.92532563     0.36930
N1291       N  0.48144905  0.86472129  0.91394401    -0.37890
N1292       N  0.32219173  0.70800205  0.91555683    -0.37890
N1293       N  0.37737785  0.87162038  0.93014850    -0.37340
N1294       N  0.42203654  0.65595901  0.89693316    -0.37340
C1295       C  0.49477223  0.70979419  0.86627919    -0.04010
C1296       C  0.47085455  0.69541617  0.83493569    -0.01120
C1297       C  0.47370283  0.65607930  0.82240522     0.03870
C1298       C  0.49906852  0.63061483  0.84176683    -0.04010
C1299       C  0.52071553  0.64437251  0.87372009    -0.01110
C1300       C  0.51280513  0.68081277  0.88931580     0.03860
C1301       C  0.43968079  0.71898200  0.81935266     0.38510
C1302       C  0.54938575  0.62032990  0.89275499     0.38500
C1303       C  0.51104254  0.68319582  0.93167224     0.36930
C1304       C  0.44867509  0.64136081  0.79156159     0.36930
N1305       N  0.50747351  0.68473041  0.96537577    -0.37890
N1306       N  0.42866139  0.62964948  0.76698033    -0.37890
N1307       N  0.57265077  0.60174515  0.90796302    -0.37340
N1308       N  0.41439935  0.73730892  0.80737379    -0.37340
C1309       C  0.74909917  0.47027606  0.89693218    -0.04010
C1310       C  0.72361707  0.43608064  0.89940595    -0.01120
C1311       C  0.73363619  0.40357894  0.92304053     0.03870
C1312       C  0.75993208  0.40823887  0.95484054    -0.04010
C1313       C  0.78986880  0.43741453  0.94605503    -0.01110
C1314       C  0.78602206  0.46452175  0.91442573     0.03860
C1315       C  0.69062352  0.42942241  0.87367705     0.38510
C1316       C  0.82757381  0.43847033  0.96447134     0.38500
C1317       C  0.81982366  0.48855159  0.90259281     0.36930
C1318       C  0.71995057  0.36504603  0.91063001     0.36930
N1319       N  0.84715625  0.50753152  0.89448880    -0.37890
N1320       N  0.70917998  0.33489322  0.89929384    -0.37890
N1321       N  0.85982872  0.44198269  0.97377896    -0.37340
N1322       N  0.66488049  0.42219024  0.85310664    -0.37340
C1323       C  0.74644846  0.54810212  0.89980195    -0.04010
C1324       C  0.77006835  0.54987172  0.93395081    -0.01120
C1325       C  0.78246245  0.58648097  0.94715601     0.03870
C1326       C  0.75336473  0.61404735  0.95612363    -0.04010
C1327       C  0.72403179  0.61316209  0.92577314    -0.01110
C1328       C  0.72354913  0.58312952  0.89588435     0.03860
C1329       C  0.76410962  0.52321136  0.96625671     0.38510
C1330       C  0.69288971  0.64016330  0.92244020     0.38500
C1331       C  0.69911400  0.58968880  0.86177118     0.36930
C1332       C  0.81828616  0.59972543  0.92811462     0.36930
N1333       N  0.67979535  0.59645943  0.83509893    -0.37890
N1334       N  0.84739048  0.60931169  0.91284044    -0.37890
N1335       N  0.66413795  0.65591158  0.91626176    -0.37340
N1336       N  0.76038874  0.50284437  0.99324219    -0.37340
C1337       C  0.69647819  0.50867453  0.85942359    -0.04010
C1338       C  0.66716388  0.51018893  0.88991974    -0.01120
C1339       C  0.62700660  0.51176764  0.88187922     0.03870
C1340       C  0.61318657  0.51075960  0.84264893    -0.04010
C1341       C  0.64124829  0.50847517  0.81197778    -0.01110
C1342       C  0.68213314  0.50770466  0.81979459     0.03860
C1343       C  0.67720824  0.51068241  0.93114206     0.38510
C1344       C  0.62824322  0.50671673  0.77160276     0.38500
C1345       C  0.70758180  0.50644013  0.78564978     0.36930
C1346       C  0.60037439  0.51410723  0.91566557     0.36930
N1347       N  0.72569995  0.50581144  0.75671457    -0.37890
N1348       N  0.57988198  0.51568730  0.94297169    -0.37890
N1349       N  0.61820371  0.50530453  0.73938446    -0.37340
N1350       N  0.68161835  0.51205913  0.96460342    -0.37340
C1351       C  0.21694130  0.50704185  0.84217516    -0.04010
C1352       C  0.19279503  0.47452613  0.83008150    -0.01120
C1353       C  0.16414989  0.47800567  0.79981993     0.03870
C1354       C  0.16265093  0.51163054  0.77394358    -0.04010
C1355       C  0.19534638  0.53792511  0.77972966    -0.01110
C1356       C  0.21589164  0.53961954  0.81583419     0.03860
C1357       C  0.19928669  0.43511638  0.84428618     0.38510
C1358       C  0.21172713  0.56291952  0.74896188     0.38500
C1359       C  0.23502605  0.57688028  0.82363534     0.36930
C1360       C  0.14102885  0.44286217  0.79311795     0.36930
N1361       N  0.24597870  0.60912999  0.82541093    -0.37890
N1362       N  0.12431471  0.41352298  0.78877498    -0.37890
N1363       N  0.22926134  0.58282965  0.72711711    -0.37340
N1364       N  0.20213846  0.40273204  0.85367053    -0.37340
C1365       C  0.24403030  0.60268740  0.97102466    -0.04010
C1366       C  0.27546609  0.60103959  0.94212731    -0.01120
C1367       C  0.27428073  0.57552841  0.90871633     0.03870
C1368       C  0.24438602  0.54562904  0.90423066    -0.04010
C1369       C  0.21054581  0.55435999  0.92571658    -0.01110
C1370       C  0.21172990  0.57593062  0.96140393     0.03860
C1371       C  0.31186934  0.62275070  0.94456852     0.38510
C1372       C  0.17394354  0.55440771  0.90497417     0.38500
C1373       C  0.17559641  0.57147462  0.98369120     0.36930
C1374       C  0.30194929  0.58513504  0.87677673     0.36930
N1375       N  0.14472717  0.56475009  0.99675694    -0.37890
N1376       N  0.32413516  0.59442236  0.85225793    -0.37890
N1377       N  0.14380855  0.55589447  0.89021898    -0.37340
N1378       N  0.34345110  0.63559098  0.94283548    -0.37340
C1379       C  0.24475068  0.41115174  0.97337744    -0.04010
C1380       C  0.27347546  0.41358290  0.94196634    -0.01120
C1381       C  0.26756689  0.43584069  0.90720862     0.03870
C1382       C  0.24113933  0.46765221  0.90632604    -0.04010
C1383       C  0.20914299  0.46173249  0.93264042    -0.01110
C1384       C  0.21091600  0.43554892  0.96563395     0.03860
C1385       C  0.31240951  0.39874617  0.94369631     0.38510
C1386       C  0.17049809  0.47195613  0.91981826     0.38500
C1387       C  0.17451143  0.43261155  0.98835084     0.36930
C1388       C  0.28721666  0.42284844  0.87147056     0.36930
N1389       N  0.14445955  0.43164967  0.00448480    -0.37890
N1390       N  0.30288220  0.41112475  0.84370105    -0.37890
N1391       N  0.13852407  0.47651553  0.91052971    -0.37340
N1392       N  0.34538812  0.39192813  0.94168998    -0.37340
C1393       C  0.29147686  0.50425761  0.86203896    -0.04010
C1394       C  0.32193000  0.50699144  0.89029008    -0.01120
C1395       C  0.35981190  0.51817527  0.87913581     0.03870
C1396       C  0.37274723  0.51382796  0.83987555    -0.04010
C1397       C  0.34487511  0.50419915  0.81128057    -0.01110
C1398       C  0.30443724  0.50006506  0.82179143     0.03860
C1399       C  0.31482862  0.50182991  0.93187312     0.38510
C1400       C  0.35774134  0.49775454  0.77110450     0.38500
C1401       C  0.27901929  0.48504248  0.79157455     0.36930
C1402       C  0.38391591  0.53800495  0.90839803     0.36930
N1403       N  0.26045276  0.47236098  0.76635097    -0.37890
N1404       N  0.40262093  0.55384985  0.93174858    -0.37890
N1405       N  0.36788068  0.49256267  0.73902557    -0.37340
N1406       N  0.31066298  0.49607389  0.96499146    -0.37340
C1407       C  0.51225982  0.17147738  0.78688380    -0.04010
C1408       C  0.48393402  0.17146086  0.81862851    -0.01120
C1409       C  0.47265302  0.20650420  0.83769285     0.03870
C1410       C  0.49766094  0.24029984  0.83823438    -0.04010
C1411       C  0.52305549  0.24230898  0.80437266    -0.01110
C1412       C  0.53285288  0.20830484  0.78210999     0.03860
C1413       C  0.46740176  0.13604030  0.83630613     0.38510
C1414       C  0.53716716  0.27953261  0.78807108     0.38500
C1415       C  0.56503905  0.21397192  0.75442179     0.36930
C1416       C  0.43239624  0.20790320  0.85156792     0.36930
N1417       N  0.59153938  0.22408713  0.73514893    -0.37890
N1418       N  0.40002494  0.20808532  0.86191313    -0.37890
N1419       N  0.54850691  0.30782676  0.77242362    -0.37340
N1420       N  0.45298558  0.10932958  0.85231981    -0.37340
C1421       C  0.58885355  0.26611368  0.96444292    -0.04010
C1422       C  0.59891593  0.25867528  0.92504956    -0.01120
C1423       C  0.56945670  0.25426471  0.89636907     0.03870
C1424       C  0.53254743  0.27274595  0.90192173    -0.04010
C1425       C  0.53028009  0.29603659  0.93666890    -0.01110
C1426       C  0.55448860  0.28895964  0.96910596     0.03860
C1427       C  0.63975925  0.26017134  0.91231093     0.38510
C1428       C  0.51089140  0.33342467  0.93561309     0.38500
C1429       C  0.55175526  0.31620425  0.00146871     0.36930
C1430       C  0.58377533  0.24130460  0.85892410     0.36930
N1431       N  0.55347215  0.34081867  0.02451737    -0.37890
N1432       N  0.60136969  0.23431339  0.83070717    -0.37890
N1433       N  0.49911289  0.36494515  0.93482965    -0.37340
N1434       N  0.67129689  0.26052421  0.89957506    -0.37340
C1435       C  0.45977589  0.26746760  0.90343256    -0.04010
C1436       C  0.45995462  0.23418839  0.92937782    -0.01120
C1437       C  0.43535025  0.23102864  0.96362591     0.03870
C1438       C  0.40417137  0.25751378  0.97145259    -0.04010
C1439       C  0.39899047  0.28580499  0.94132157    -0.01110
C1440       C  0.42867337  0.29438915  0.91230116     0.03860
C1441       C  0.48632540  0.20224192  0.92113141     0.38510
C1442       C  0.36143499  0.30352684  0.93617294     0.38500
C1443       C  0.42707424  0.33394883  0.89730606     0.36930
C1444       C  0.44188603  0.19808992  0.98938548     0.36930
N1445       N  0.42327995  0.36639036  0.88841184    -0.37890
N1446       N  0.44857441  0.17050294  0.00765381    -0.37890
N1447       N  0.33058065  0.31470374  0.92940757    -0.37340
N1448       N  0.50668203  0.17653378  0.91376077    -0.37340
C1449       C  0.49820428  0.31455387  0.85063174    -0.04010
C1450       C  0.53176666  0.34085180  0.85230375    -0.01120
C1451       C  0.52768185  0.38048798  0.84523538     0.03870
C1452       C  0.49470941  0.39367421  0.82620750    -0.04010
C1453       C  0.46660328  0.36658772  0.81251833    -0.01110
C1454       C  0.46788520  0.32686487  0.82507346     0.03860
C1455       C  0.57219024  0.32939161  0.85551694     0.38510
C1456       C  0.43404591  0.38049768  0.79003064     0.38500
C1457       C  0.43551517  0.30085151  0.81530571     0.36930
C1458       C  0.55749851  0.40779880  0.85951249     0.36930
N1459       N  0.40844445  0.28169452  0.80751529    -0.37890
N1460       N  0.58121920  0.42837036  0.87244178    -0.37890
N1461       N  0.40804795  0.39176424  0.77219030    -0.37340
N1462       N  0.60556272  0.32454935  0.85628834    -0.37340
C1463       C  0.74832308  0.90884972  0.45673431    -0.04010
C1464       C  0.77684306  0.90570385  0.42629032    -0.01120
C1465       C  0.78261408  0.93734658  0.39773543     0.03870
C1466       C  0.76122008  0.97410725  0.40120992    -0.04010
C1467       C  0.73633163  0.97346724  0.43518921    -0.01110
C1468       C  0.72141494  0.93817754  0.44889630     0.03860
C1469       C  0.79483628  0.86827712  0.41997653     0.38510
C1470       C  0.74262458  0.00042487  0.46708007     0.38500
C1471       C  0.68380219  0.92692681  0.43312379     0.36930
C1472       C  0.80828750  0.92777126  0.36569984     0.36930
N1473       N  0.65355997  0.91817461  0.42068191    -0.37890
N1474       N  0.82816992  0.91452745  0.34165954    -0.37890
N1475       N  0.74720033  0.02156991  0.49313579    -0.37340
N1476       N  0.80746561  0.83786243  0.41309583    -0.37340
C1477       C  0.75325239  0.91552580  0.53278906    -0.04010
C1478       C  0.77827957  0.94941650  0.52850354    -0.01120
C1479       C  0.78468673  0.97577945  0.56021723     0.03870
C1480       C  0.76438316  0.97174296  0.59705790    -0.04010
C1481       C  0.74773026  0.93321750  0.60367116    -0.01110
C1482       C  0.74194679  0.90615194  0.57230394     0.03860
C1483       C  0.80636641  0.95205597  0.49575335     0.38510
C1484       C  0.74188166  0.91810408  0.64327312     0.38500
C1485       C  0.72603929  0.86749994  0.58192807     0.36930
C1486       C  0.81954279  0.00043367  0.55647275     0.36930
N1487       N  0.71318690  0.83721650  0.59130479    -0.37890
N1488       N  0.84941766  0.01581169  0.54990019    -0.37890
N1489       N  0.73972785  0.90458794  0.67444012    -0.37340
N1490       N  0.83093745  0.95386898  0.47205541    -0.37340
C1491       C  0.69971088  0.87217016  0.49825427    -0.04010
C1492       C  0.68349235  0.84386483  0.47153695    -0.01120
C1493       C  0.64322960  0.83205101  0.47372447     0.03870
C1494       C  0.61709007  0.85049946  0.49987787    -0.04010
C1495       C  0.63165098  0.88224074  0.52214879    -0.01110
C1496       C  0.67074182  0.89540240  0.51756800     0.03860
C1497       C  0.70650638  0.82899999  0.43900452     0.38510
C1498       C  0.60543694  0.90536088  0.54623442     0.38500
C1499       C  0.67625799  0.93754378  0.52007594     0.36930
C1500       C  0.62815561  0.80295137  0.44661736     0.36930
N1501       N  0.67898515  0.97138722  0.51908388    -0.37890
N1502       N  0.61614475  0.77989483  0.42484014    -0.37890
N1503       N  0.58463840  0.92497216  0.56415147    -0.37340
N1504       N  0.72298113  0.81604315  0.41233062    -0.37340
C1505       C  0.50023199  0.83896459  0.77528681    -0.04010
C1506       C  0.50604148  0.85059656  0.81505470    -0.01120
C1507       C  0.51406298  0.82294397  0.84499438     0.03870
C1508       C  0.50460153  0.78239122  0.84163851    -0.04010
C1509       C  0.50518025  0.77099813  0.80125456    -0.01110
C1510       C  0.49478332  0.79723456  0.77127137     0.03860
C1511       C  0.50064906  0.89055123  0.82781554     0.38510
C1512       C  0.52343717  0.73578254  0.78688437     0.38500
C1513       C  0.47197925  0.77878728  0.74061204     0.36930
C1514       C  0.54476785  0.83535955  0.87078285     0.36930
N1515       N  0.45376036  0.76229476  0.71729161    -0.37890
N1516       N  0.57053849  0.84778333  0.88862580    -0.37890
N1517       N  0.53704528  0.70820962  0.77304572    -0.37340
N1518       N  0.49490759  0.92146413  0.84006252    -0.37340
C1519       C  0.54164747  0.89607874  0.73708754    -0.04010
C1520       C  0.56302268  0.90547538  0.77107846    -0.01120
C1521       C  0.58094601  0.94287118  0.77605462     0.03870
C1522       C  0.59705473  0.96507101  0.74351764    -0.04010
C1523       C  0.58466232  0.94910741  0.70611697    -0.01110
C1524       C  0.55898760  0.91523396  0.70322904     0.03860
C1525       C  0.58445245  0.87423914  0.78883858     0.38510
C1526       C  0.59243546  0.97031863  0.66923645     0.38500
C1527       C  0.55872351  0.89709297  0.66510193     0.36930
C1528       C  0.57505454  0.95891032  0.81471263     0.36930
N1529       N  0.56141954  0.88458711  0.63373554    -0.37890
N1530       N  0.56834950  0.97045176  0.84591246    -0.37890
N1531       N  0.59505168  0.98805892  0.64028634    -0.37340
N1532       N  0.60287594  0.84968768  0.80227323    -0.37340
C1533       C  0.46493259  0.90037589  0.74160431    -0.04010
C1534       C  0.45784254  0.92845679  0.71100926    -0.01120
C1535       C  0.42993264  0.95872371  0.71537405     0.03870
C1536       C  0.40803099  0.96392460  0.75089330    -0.04010
C1537       C  0.40843627  0.93054941  0.77715748    -0.01110
C1538       C  0.43447469  0.89877382  0.77098363     0.03860
C1539       C  0.47562340  0.92565851  0.67222001     0.38510
C1540       C  0.37880574  0.92382153  0.80760540     0.38500
C1541       C  0.42417629  0.86197486  0.79078569     0.36930
C1542       C  0.42664798  0.98616489  0.68297327     0.36930
N1543       N  0.41457279  0.83329087  0.80678857    -0.37890
N1544       N  0.42632561  0.00599293  0.65540898    -0.37890
N1545       N  0.35516908  0.91544019  0.83104378    -0.37340
N1546       N  0.48677545  0.92675923  0.63997692    -0.37340
C1547       C  0.49555761  0.84526680  0.70007678    -0.04010
C1548       C  0.52582305  0.82140040  0.68416068    -0.01120
C1549       C  0.52380661  0.80829586  0.64460215     0.03870
C1550       C  0.49356815  0.82180026  0.62064504    -0.04010
C1551       C  0.46107286  0.83924222  0.63849038    -0.01110
C1552       C  0.45969672  0.84364450  0.67903198     0.03860
C1553       C  0.55987557  0.81234798  0.70697320     0.38510
C1554       C  0.43239890  0.85977429  0.61564210     0.38500
C1555       C  0.42118679  0.84592669  0.69725553     0.36930
C1556       C  0.55555751  0.78657318  0.62726259     0.36930
N1557       N  0.38966488  0.84702932  0.70996821    -0.37890
N1558       N  0.58094786  0.76926622  0.61339989    -0.37890
N1559       N  0.41084601  0.87861658  0.59828794    -0.37340
N1560       N  0.58718598  0.80453734  0.72474214    -0.37340
C1561       C  0.50295660  0.78762624  0.16095551    -0.04010
C1562       C  0.47190757  0.79059741  0.18945866    -0.01120
C1563       C  0.46554091  0.82679157  0.20899153     0.03870
C1564       C  0.49802401  0.84985239  0.22376337    -0.04010
C1565       C  0.53433886  0.83526064  0.20818585    -0.01110
C1566       C  0.53560055  0.81324641  0.17243714     0.03860
C1567       C  0.46546743  0.75899738  0.21718726     0.38510
C1568       C  0.57073700  0.83863773  0.22973178     0.38500
C1569       C  0.57173611  0.81999356  0.15064762     0.36930
C1570       C  0.42494920  0.83644969  0.21084736     0.36930
N1571       N  0.60166375  0.82753461  0.13583504    -0.37890
N1572       N  0.39166846  0.84139199  0.20849772    -0.37890
N1573       N  0.59978091  0.84015721  0.24668368    -0.37340
N1574       N  0.45979045  0.73476095  0.24059986    -0.37340
C1575       C  0.53799476  0.90903277  0.25540621    -0.04010
C1576       C  0.55646812  0.92141640  0.21968283    -0.01120
C1577       C  0.59377771  0.93959671  0.22091595     0.03870
C1578       C  0.60206638  0.96771459  0.25120047    -0.04010
C1579       C  0.58432973  0.95538412  0.28769348    -0.01110
C1580       C  0.55951503  0.92113086  0.28946852     0.03860
C1581       C  0.53840776  0.91582650  0.18189683     0.38510
C1582       C  0.59256883  0.97352772  0.32466382     0.38500
C1583       C  0.56528001  0.89512672  0.32252601     0.36930
C1584       C  0.62414763  0.92257058  0.19658663     0.36930
N1585       N  0.57170134  0.87503250  0.34897037    -0.37890
N1586       N  0.64814162  0.90848392  0.17730093    -0.37890
N1587       N  0.59621151  0.98411688  0.35654963    -0.37340
N1588       N  0.52337673  0.91151805  0.15200083    -0.37340
C1589       C  0.46206578  0.91689968  0.24664281    -0.04010
C1590       C  0.42146426  0.90948553  0.25691130    -0.01120
C1591       C  0.39154455  0.93748759  0.24959325     0.03870
C1592       C  0.40079329  0.97741942  0.23996170    -0.04010
C1593       C  0.43873225  0.98198583  0.22333602    -0.01110
C1594       C  0.46908663  0.95677470  0.23350272     0.03860
C1595       C  0.40969533  0.87613031  0.28154038     0.38510
C1596       C  0.44905178  0.01357361  0.19643990     0.38500
C1597       C  0.50242629  0.98028026  0.24486224     0.36930
C1598       C  0.35177226  0.92256681  0.25033293     0.36930
N1599       N  0.52538432  0.00335458  0.25466350    -0.37890
N1600       N  0.32181329  0.90622254  0.25067592    -0.37890
N1601       N  0.45967737  0.03749659  0.17444840    -0.37340
N1602       N  0.39958768  0.85005255  0.30131602    -0.37340
C1603       C  0.49001375  0.86962106  0.29967881    -0.04010
C1604       C  0.47903432  0.89640974  0.33026998    -0.01120
C1605       C  0.47269406  0.88420292  0.36921473     0.03870
C1606       C  0.48499137  0.84722269  0.38169499    -0.04010
C1607       C  0.49452325  0.81939122  0.35296526    -0.01110
C1608       C  0.49746998  0.83011085  0.31262788     0.03860
C1609       C  0.47803487  0.93825953  0.32454750     0.38510
C1610       C  0.50279571  0.77944933  0.36484628     0.38500
C1611       C  0.51441392  0.80048742  0.28794826     0.36930
C1612       C  0.45418163  0.91109608  0.39665092     0.36930
N1613       N  0.52940291  0.77477076  0.27209521    -0.37890
N1614       N  0.43986400  0.93290371  0.41814834    -0.37890
N1615       N  0.50935817  0.74761283  0.37398788    -0.37340
N1616       N  0.47625521  0.97192945  0.32374200    -0.37340
C1617       C  0.16400097  0.77585679  0.49344553    -0.04010
C1618       C  0.17128491  0.80197648  0.46069447    -0.01120
C1619       C  0.20078666  0.83277996  0.46118008     0.03870
C1620       C  0.22496336  0.84068631  0.49506692    -0.04010
C1621       C  0.22234781  0.80907896  0.52335379    -0.01110
C1622       C  0.19605411  0.77601434  0.51962985     0.03860
C1623       C  0.15492131  0.79337887  0.42236868     0.38510
C1624       C  0.24509431  0.80835993  0.55864029     0.38500
C1625       C  0.20490514  0.74088684  0.54198389     0.36930
C1626       C  0.20788878  0.85161510  0.42326785     0.36930
N1627       N  0.21337083  0.71375884  0.56020890    -0.37890
N1628       N  0.21185726  0.86419214  0.39180741    -0.37890
N1629       N  0.25949370  0.80216994  0.58846949    -0.37340
N1630       N  0.14397717  0.78747365  0.39092995    -0.37340
C1631       C  0.25399332  0.90652115  0.53545599    -0.04010
C1632       C  0.22303017  0.90708357  0.56453767    -0.01120
C1633       C  0.22174238  0.93592363  0.59580590     0.03870
C1634       C  0.25354071  0.96332363  0.60274587    -0.04010
C1635       C  0.28673268  0.95600746  0.57849161    -0.01110
C1636       C  0.28401879  0.93576954  0.54220303     0.03860
C1637       C  0.18974516  0.88058113  0.56183747     0.38510
C1638       C  0.32510995  0.95642214  0.59588989     0.38500
C1639       C  0.31720964  0.94186178  0.51595445     0.36930
C1640       C  0.18734864  0.93406710  0.62088392     0.36930
N1641       N  0.34556697  0.94935635  0.49833884    -0.37890
N1642       N  0.15823517  0.92852568  0.63792643    -0.37890
N1643       N  0.35574730  0.95344203  0.60942984    -0.37340
N1644       N  0.16123919  0.86188542  0.56039112    -0.37340
C1645       C  0.25413375  0.90693468  0.46135514    -0.04010
C1646       C  0.21776620  0.92642473  0.45523300    -0.01120
C1647       C  0.21068004  0.94909791  0.42067215     0.03870
C1648       C  0.24162265  0.96223182  0.39507452    -0.04010
C1649       C  0.27353665  0.93674278  0.39620979    -0.01110
C1650       C  0.28277215  0.91492906  0.43052149     0.03860
C1651       C  0.18432677  0.92077323  0.48145678     0.38510
C1652       C  0.28837510  0.92152460  0.35958843     0.38500
C1653       C  0.32336622  0.90454288  0.43198052     0.36930
C1654       C  0.17006312  0.95421483  0.41053052     0.36930
N1655       N  0.35652515  0.89851964  0.43076941    -0.37890
N1656       N  0.13689803  0.95528502  0.40458473    -0.37890
N1657       N  0.29994289  0.90719678  0.33117522    -0.37340
N1658       N  0.15495730  0.91905512  0.49872789    -0.37340
C1659       C  0.29878688  0.85375707  0.50040165    -0.04010
C1660       C  0.31364910  0.83043055  0.46825985    -0.01120
C1661       C  0.35347919  0.81864140  0.46733173     0.03870
C1662       C  0.37542934  0.81983661  0.50153601    -0.04010
C1663       C  0.35597790  0.82767017  0.53621277    -0.01110
C1664       C  0.32146787  0.84950753  0.53595038     0.03860
C1665       C  0.29075200  0.81954411  0.43464212     0.38510
C1666       C  0.36904083  0.80816915  0.57145395     0.38500
C1667       C  0.31081945  0.86364384  0.57426045     0.36930
C1668       C  0.37210228  0.80583321  0.43122145     0.36930
N1669       N  0.30449200  0.87208438  0.60644950    -0.37890
N1670       N  0.38716034  0.79584178  0.40243461    -0.37890
N1671       N  0.37846194  0.79136292  0.59917522    -0.37340
N1672       N  0.27581321  0.80818964  0.40654054    -0.37340
C1673       C  0.83711764  0.78957585  0.49796950    -0.04010
C1674       C  0.79678467  0.78303038  0.48843768    -0.01120
C1675       C  0.76764987  0.81034630  0.49873645     0.03870
C1676       C  0.77664786  0.85093389  0.50323844    -0.04010
C1677       C  0.81705592  0.85773560  0.51349432    -0.01110
C1678       C  0.84650378  0.82940915  0.50779189     0.03860
C1679       C  0.78265960  0.74960181  0.46644230     0.38510
C1680       C  0.82901680  0.88703657  0.54159516     0.38500
C1681       C  0.88664088  0.84256365  0.51604544     0.36930
C1682       C  0.73171371  0.79321888  0.51478704     0.36930
N1683       N  0.91761974  0.85480899  0.52282459    -0.37890
N1684       N  0.70375081  0.77804582  0.52770407    -0.37890
N1685       N  0.84292865  0.90840697  0.56387947    -0.37340
N1686       N  0.76826487  0.72359475  0.44997172    -0.37340
C1687       C  0.89619400  0.76455059  0.45890377    -0.04010
C1688       C  0.91896086  0.79862385  0.45156015    -0.01120
C1689       C  0.95537961  0.79598400  0.43163389     0.03870
C1690       C  0.96128079  0.76699890  0.40135568    -0.04010
C1691       C  0.92570619  0.74394796  0.39478383    -0.01110
C1692       C  0.89376339  0.74306916  0.42289413     0.03860
C1693       C  0.89813570  0.83227630  0.43692368     0.38510
C1694       C  0.91602360  0.72903458  0.35636682     0.38500
C1695       C  0.85726607  0.72425468  0.41131205     0.36930
C1696       C  0.97871498  0.83130496  0.43669992     0.36930
N1697       N  0.82989764  0.70810610  0.39936030    -0.37890
N1698       N  0.99184098  0.86202597  0.44352534    -0.37890
N1699       N  0.90595598  0.71843505  0.32591927    -0.37340
N1700       N  0.88431389  0.86058111  0.42533948    -0.37340
C1701       C  0.89426279  0.75604498  0.54043762    -0.04010
C1702       C  0.91382207  0.72271003  0.55599738    -0.01120
C1703       C  0.94700756  0.72746983  0.57979558     0.03870
C1704       C  0.95621077  0.76441876  0.59748621    -0.04010
C1705       C  0.92413819  0.79151325  0.59597808    -0.01110
C1706       C  0.89136468  0.78362989  0.57140104     0.03860
C1707       C  0.89089525  0.68835277  0.56756822     0.38510
C1708       C  0.91939243  0.82362048  0.62324328     0.38500
C1709       C  0.85335658  0.79693747  0.58471399     0.36930
C1710       C  0.97098200  0.69340083  0.58538399     0.36930
N1711       N  0.82393891  0.80841636  0.59673390    -0.37890
N1712       N  0.99029137  0.66623942  0.58837455    -0.37890
N1713       N  0.91340202  0.84931095  0.64440168    -0.37340
N1714       N  0.87284377  0.66162721  0.57917886    -0.37340
C1715       C  0.85369305  0.71264655  0.49712107    -0.04010
C1716       C  0.82032017  0.69776364  0.51911959    -0.01120
C1717       C  0.80846449  0.65769134  0.51635068     0.03870
C1718       C  0.83027088  0.63188294  0.49302882    -0.04010
C1719       C  0.86374319  0.64600119  0.47287345    -0.01110
C1720       C  0.87844187  0.68313286  0.48116320     0.03860
C1721       C  0.80115492  0.72103435  0.54886615     0.38510
C1722       C  0.88560303  0.62121426  0.44611491     0.38500
C1723       C  0.92071412  0.68790799  0.47973881     0.36930
C1724       C  0.77615790  0.64232306  0.54027038     0.36930
N1725       N  0.95429734  0.69155721  0.48103437    -0.37890
N1726       N  0.75056202  0.63002351  0.55955160    -0.37890
N1727       N  0.90321722  0.60143475  0.42515470    -0.37340
N1728       N  0.78438516  0.73770562  0.57307848    -0.37340
C1729       C  0.83226501  0.51043311  0.77141536    -0.04010
C1730       C  0.82018525  0.47541638  0.79237238    -0.01120
C1731       C  0.78704641  0.47502653  0.81849599     0.03870
C1732       C  0.77186086  0.51036002  0.83533004    -0.04010
C1733       C  0.78470702  0.54501478  0.81445332    -0.01110
C1734       C  0.80760009  0.54285159  0.77912518     0.03860
C1735       C  0.83613937  0.43719383  0.78348365     0.38510
C1736       C  0.77850740  0.58434586  0.82841513     0.38500
C1737       C  0.80567289  0.57586197  0.75248695     0.36930
C1738       C  0.76662284  0.43747844  0.82241478     0.36930
N1739       N  0.80045042  0.60332053  0.73346705    -0.37890
N1740       N  0.75299831  0.40614521  0.82215990    -0.37890
N1741       N  0.77716993  0.61706772  0.83708406    -0.37340
N1742       N  0.84704374  0.40593176  0.77718029    -0.37340
C1743       C  0.89471863  0.47510209  0.74040565    -0.04010
C1744       C  0.91598520  0.46658334  0.77528798    -0.01120
C1745       C  0.93851837  0.43209118  0.77860036     0.03870
C1746       C  0.95663975  0.41457956  0.74523957    -0.04010
C1747       C  0.93926063  0.42701485  0.70894248    -0.01110
C1748       C  0.90415800  0.44931433  0.70892255     0.03860
C1749       C  0.91270640  0.48966035  0.81057587     0.38510
C1750       C  0.95069675  0.41203318  0.67083871     0.38500
C1751       C  0.87681718  0.43968955  0.67847162     0.36930
C1752       C  0.93791310  0.41383331  0.81682869     0.36930
N1753       N  0.85686306  0.42743192  0.65412735    -0.37890
N1754       N  0.93575893  0.40228642  0.84869715    -0.37890
N1755       N  0.95430271  0.39951196  0.63949789    -0.37340
N1756       N  0.91339456  0.50489622  0.84078718    -0.37340
C1757       C  0.89823579  0.54746145  0.74238644    -0.04010
C1758       C  0.92982592  0.55051590  0.71433828    -0.01120
C1759       C  0.96404606  0.57143026  0.72335169     0.03870
C1760       C  0.96383956  0.60625391  0.74652643    -0.04010
C1761       C  0.92922436  0.60741068  0.77194054    -0.01110
C1762       C  0.90069480  0.57598569  0.77309782     0.03860
C1763       C  0.93202512  0.52724628  0.67854212     0.38510
C1764       C  0.92259722  0.63848751  0.80046990     0.38500
C1765       C  0.87838757  0.57256302  0.80920345     0.36930
C1766       C  0.99400764  0.54306784  0.72634001     0.36930
N1767       N  0.86344781  0.57187362  0.83982424    -0.37890
N1768       N  0.01403061  0.51644244  0.72675407    -0.37890
N1769       N  0.91557654  0.66231920  0.82344690    -0.37340
N1770       N  0.93536246  0.50982062  0.64965303    -0.37340
C1771       C  0.84394728  0.51833839  0.69685849    -0.04010
C1772       C  0.81292553  0.49280426  0.68294842    -0.01120
C1773       C  0.80254430  0.49258846  0.64238221     0.03870
C1774       C  0.82417295  0.51569842  0.61521767    -0.04010
C1775       C  0.84952276  0.54475420  0.62969841    -0.01110
C1776       C  0.85287148  0.55020418  0.67015467     0.03860
C1777       C  0.79270159  0.46434557  0.70781088     0.38510
C1778       C  0.87485360  0.56766416  0.60327197     0.38500
C1779       C  0.86441786  0.58946667  0.68169904     0.36930
C1780       C  0.77310107  0.46524400  0.62796560     0.36930
N1781       N  0.87354117  0.62144533  0.68859412    -0.37890
N1782       N  0.74971704  0.44335631  0.61642204    -0.37890
N1783       N  0.89659822  0.58403761  0.58233049    -0.37340
N1784       N  0.77463628  0.44050997  0.72471178    -0.37340
C1785       C  0.83870344  0.50307100  0.21644898    -0.04010
C1786       C  0.83775417  0.53244501  0.18570816    -0.01120
C1787       C  0.80398212  0.53840367  0.16312672     0.03870
C1788       C  0.77468692  0.50878325  0.15874311    -0.04010
C1789       C  0.77386390  0.48047114  0.19042877    -0.01110
C1790       C  0.80457652  0.47808584  0.21838532     0.03860
C1791       C  0.87026667  0.55807228  0.17395642     0.38510
C1792       C  0.73911637  0.45752810  0.20084386     0.38500
C1793       C  0.79816390  0.45057335  0.25084083     0.36930
C1794       C  0.79811173  0.57818559  0.14977644     0.36930
N1795       N  0.78964909  0.42836557  0.27541692    -0.37890
N1796       N  0.79442786  0.61049047  0.14062220    -0.37890
N1797       N  0.71304668  0.43967484  0.21441541    -0.37340
N1798       N  0.89391123  0.58034008  0.16267949    -0.37340
C1799       C  0.90141029  0.46603559  0.24819353    -0.04010
C1800       C  0.93345963  0.46440504  0.27513336    -0.01120
C1801       C  0.95800035  0.43160457  0.27641506     0.03870
C1802       C  0.96509528  0.40786427  0.24265302    -0.04010
C1803       C  0.93555886  0.41169899  0.21340074    -0.01110
C1804       C  0.90134505  0.43452199  0.22054298     0.03860
C1805       C  0.93935860  0.49387162  0.30545149     0.38510
C1806       C  0.93639734  0.39124037  0.17647122     0.38500
C1807       C  0.86538106  0.41689739  0.20699317     0.36930
C1808       C  0.96626688  0.41775045  0.31541733     0.36930
N1809       N  0.83845029  0.39874742  0.19672604    -0.37890
N1810       N  0.96839971  0.40706135  0.34754507    -0.37890
N1811       N  0.93349970  0.37745344  0.14568630    -0.37340
N1812       N  0.94420333  0.51716040  0.32959326    -0.37340
C1813       C  0.89767599  0.54134497  0.24792066    -0.04010
C1814       C  0.93492529  0.53858043  0.23080253    -0.01120
C1815       C  0.96507420  0.56228484  0.24413511     0.03870
C1816       C  0.95969847  0.60241661  0.25298548    -0.04010
C1817       C  0.91876908  0.61176795  0.25459172    -0.01110
C1818       C  0.88852260  0.58133639  0.25673278     0.03860
C1819       C  0.94093304  0.51649407  0.19501966     0.38510
C1820       C  0.90591134  0.65173451  0.25419295     0.38500
C1821       C  0.84867019  0.59440764  0.25846974     0.36930
C1822       C  0.99929473  0.54113907  0.24992758     0.36930
N1823       N  0.81858795  0.60927733  0.25843487    -0.37890
N1824       N  0.02530307  0.52102002  0.25305760    -0.37890
N1825       N  0.89071555  0.68161743  0.25409412    -0.37340
N1826       N  0.94313892  0.50090885  0.16506482    -0.37340
C1827       C  0.84983041  0.49992463  0.29319676    -0.04010
C1828       C  0.85973051  0.47140927  0.32205483    -0.01120
C1829       C  0.85970191  0.48144627  0.36161343     0.03870
C1830       C  0.83650265  0.51205476  0.37498756    -0.04010
C1831       C  0.81521595  0.53333269  0.34754460    -0.01110
C1832       C  0.82049942  0.52611965  0.30681449     0.03860
C1833       C  0.86411075  0.43016621  0.31359658     0.38510
C1834       C  0.78855527  0.56303095  0.36102855     0.38500
C1835       C  0.78813791  0.53578729  0.28219799     0.36930
C1836       C  0.88563886  0.46136938  0.38779689     0.36930
N1837       N  0.76081780  0.54294726  0.26420215    -0.37890
N1838       N  0.90797925  0.44758619  0.40853268    -0.37890
N1839       N  0.76750880  0.58689957  0.37187327    -0.37340
N1840       N  0.86672827  0.39686068  0.30856690    -0.37340
C1841       C  0.84004648  0.23627377  0.50292905    -0.04010
C1842       C  0.84727648  0.19500002  0.49912102    -0.01120
C1843       C  0.81673642  0.16455472  0.49903382     0.03870
C1844       C  0.77531069  0.17213582  0.50163415    -0.04010
C1845       C  0.76850926  0.21399708  0.50625298    -0.01110
C1846       C  0.79933654  0.24303364  0.51154028     0.03860
C1847       C  0.88671550  0.18132478  0.49565724     0.38510
C1848       C  0.73006121  0.23118796  0.50641025     0.38500
C1849       C  0.78729784  0.27864780  0.53153456     0.36930
C1850       C  0.82994773  0.12445961  0.50048636     0.36930
N1851       N  0.77584717  0.30592544  0.54781072    -0.37890
N1852       N  0.84221259  0.09329479  0.50317604    -0.37890
N1853       N  0.70110067  0.24816178  0.50707003    -0.37340
N1854       N  0.91619590  0.16631394  0.49008459    -0.37340
C1855       C  0.90536665  0.27059254  0.53594877    -0.04010
C1856       C  0.89648026  0.25089759  0.57223895    -0.01120
C1857       C  0.92457183  0.24716941  0.60284893     0.03870
C1858       C  0.96362549  0.26435490  0.59945197    -0.04010
C1859       C  0.96599678  0.29464905  0.57103266    -0.01110
C1860       C  0.93900524  0.29708532  0.53939863     0.03860
C1861       C  0.85607546  0.24643696  0.58500494     0.38510
C1862       C  0.99491497  0.32608237  0.57557361     0.38500
C1863       C  0.94330383  0.33304473  0.51700096     0.36930
C1864       C  0.91196003  0.22135606  0.63483080     0.36930
N1865       N  0.94957903  0.36374542  0.50346419    -0.37890
N1866       N  0.89950194  0.19836218  0.65703015    -0.37890
N1867       N  0.01651870  0.35254025  0.57702067    -0.37340
N1868       N  0.82526554  0.24729651  0.59940644    -0.37340
C1869       C  0.89978708  0.27039646  0.45869558    -0.04010
C1870       C  0.92315763  0.30217718  0.44301925    -0.01120
C1871       C  0.95780368  0.29627524  0.42032353     0.03870
C1872       C  0.96511877  0.25967162  0.40173717    -0.04010
C1873       C  0.93861076  0.22877671  0.41357856    -0.01110
C1874       C  0.90403641  0.23633914  0.43550212     0.03860
C1875       C  0.90685048  0.34041632  0.43825882     0.38510
C1876       C  0.95112037  0.18855282  0.41422427     0.38500
C1877       C  0.87019255  0.22179589  0.41613140     0.36930
C1878       C  0.98497575  0.32923887  0.41643482     0.36930
N1879       N  0.84486208  0.21203852  0.39639597    -0.37890
N1880       N  0.00511182  0.35686316  0.41489215    -0.37890
N1881       N  0.96230059  0.15687414  0.41623419    -0.37340
N1882       N  0.89547452  0.37141307  0.43229351    -0.37340
C1883       C  0.83117566  0.39362335  0.49589669    -0.04010
C1884       C  0.81677565  0.36606977  0.46894277    -0.01120
C1885       C  0.82896665  0.32650934  0.47098747     0.03870
C1886       C  0.85394930  0.31358204  0.50192407    -0.04010
C1887       C  0.85872904  0.34112239  0.53377813    -0.01110
C1888       C  0.85265966  0.38094507  0.52785098     0.03860
C1889       C  0.79346549  0.37940698  0.43653511     0.38510
C1890       C  0.86618496  0.33135918  0.57441883     0.38500
C1891       C  0.87019357  0.40924475  0.55469921     0.36930
C1892       C  0.81566312  0.30005742  0.44070130     0.36930
N1893       N  0.88552472  0.43150294  0.57516532    -0.37890
N1894       N  0.80309037  0.28046556  0.41613063    -0.37890
N1895       N  0.87191198  0.32756342  0.60761489    -0.37340
N1896       N  0.77508453  0.39018359  0.41057318    -0.37340
loop_ 
_geom_bond_atom_site_label_1 
_geom_bond_atom_site_label_2 
_geom_bond_distance 
_geom_bond_site_symmetry_2 
_ccdc_geom_bond_type 
C1         C1841   1.675       .  S
C1         C1855   1.634       .  S
C1         C1869   1.646       .  S
C1         C1886   1.598       .  S
C2         C1785   1.613       .  S
C2         C1799   1.640       .  S
C2         C1813   1.606       .  S
C2         C1827   1.610       .  S
C3         C1729   1.616       .  S
C3         C1743   1.626       .  S
C3         C1757   1.609       .  S
C3         C1771   1.621       .  S
C4         C1673   1.615       .  S
C4         C1687   1.644       .  S
C4         C1701   1.652       .  S
C4         C1715   1.580       .  S
O5          Cu13   1.944       .  S
O5           C15   1.273       .  A
O6          Cu13   1.957       .  S
O6           C16   1.272       .  A
O7          Cu13   1.967       .  S
O7           C17   1.272       .  A
O8          Cu13   1.975       .  S
O8           C18   1.274       .  A
O9          Cu14   2.047       .  S
O9           C18   1.282       .  A
O10         Cu14   2.027       .  S
O10          C17   1.281       .  A
O11         Cu14   2.031       .  S
O11          C16   1.279       .  A
O12         Cu14   2.023       .  S
O12          C15   1.277       .  A
Cu13        Cu14   2.368       .  S
C15        C1718   1.474       .  S
C16        C1883   1.473       .  S
C17        C1830   1.476       .  S
C18        C1774   1.490       .  S
C19        C1620   1.651       .  S
C19        C1631   1.637       .  S
C19        C1645   1.631       .  S
C19        C1659   1.625       .  S
C20        C1564   1.649       .  S
C20        C1575   1.609       .  S
C20        C1589   1.643       .  S
C20        C1603   1.596       .  S
C21        C1505   1.624       .  S
C21        C1519   1.650       .  S
C21        C1533   1.622       .  S
C21        C1547   1.580       .  S
C22        C1463   1.600       .  S
C22        C1477   1.601       .  S
C22        C1491   1.609       .  S
C22        C1676   1.636       .  S
O23         Cu31   2.047       .  S
O23          C33   1.281       .  A
O24         Cu31   2.059       .  S
O24          C34   1.283       .  A
O25         Cu31   2.032       .  S
O25          C35   1.279       .  A
O26         Cu31   2.018       .  S
O26          C36   1.279       .  A
O27         Cu32   1.951       .  S
O27          C36   1.271       .  A
O28         Cu32   1.968       .  S
O28          C35   1.274       .  A
O29         Cu32   1.985       .  S
O29          C34   1.275       .  A
O30         Cu32   2.002       .  S
O30          C33   1.277       .  A
Cu31        Cu32   2.365       .  S
C33        C1662   1.487       .  S
C34        C1494   1.508       .  S
C35        C1550   1.477       .  S
C36        C1606   1.499       .  S
C37        C1410   1.630       .  S
C37        C1424   1.604       .  S
C37        C1435   1.641       .  S
C37        C1449   1.581       .  S
C38        C1351   1.617       .  S
C38        C1368   1.636       .  S
C38        C1382   1.632       .  S
C38        C1393   1.593       .  S
C39        C1309   1.612       .  S
C39        C1323   1.633       .  S
C39        C1337   1.595       .  S
C39        C1732   1.623       .  S
C40        C1267   1.617       .  S
C40        C1281   1.655       .  S
C40        C1295   1.566       .  S
C40        C1508   1.641       .  S
O41         Cu49   2.001       .  S
O41          C51   1.274       .  A
O42         Cu49   2.013       .  S
O42          C52   1.276       .  A
O43         Cu49   2.071       .  S
O43          C53   1.285       .  A
O44         Cu49   2.083       .  S
O44          C54   1.288       .  A
O45         Cu50   1.919       .  S
O45          C54   1.263       .  A
O46         Cu50   1.886       .  S
O46          C53   1.262       .  A
O47         Cu50   1.944       .  S
O47          C52   1.272       .  A
O48         Cu50   1.963       .  S
O48          C51   1.275       .  A
Cu49        Cu50   2.359       .  S
C51        C1298   1.469       .  S
C52        C1452   1.459       .  S
C53        C1396   1.494       .  S
C54        C1340   1.519       .  S
C55        C1225   1.644       .  S
C55        C1242   1.644       .  S
C55        C1253   1.608       .  S
C55        C1536   1.618   1_545  S
C56        C1186   1.648       .  S
C56        C1197   1.617       .  S
C56        C1211   1.588       .  S
C56        C1284   1.631   1_554  S
C57        C1141   1.656       .  S
C57        C1158   1.618       .  S
C57        C1169   1.624       .  S
C57        C1438   1.624   1_554  S
C58        C1099   1.617       .  S
C58        C1113   1.637       .  S
C58        C1127   1.628       .  S
C58        C1592   1.613   1_545  S
O59         Cu67   1.993   1_565  S
O59          C69   1.272       .  A
O60         Cu67   2.020   1_556  S
O60          C70   1.277       .  A
O61         Cu67   2.084   1_556  S
O61          C71   1.285       .  A
O62         Cu67   2.082       .  S
O62          C72   1.290       .  A
O63         Cu68   1.917   1_554  S
O63          C72   1.263       .  A
O64         Cu68   1.904       .  S
O64          C71   1.265       .  A
O65         Cu68   1.975   1_554  S
O65          C70   1.274   1_554  A
O66         Cu68   1.986   1_565  S
O66          C69   1.279   1_556  A
Cu67        Cu68   2.356   1_554  S
C69        C1214   1.469       .  S
C70        C1172   1.468   1_556  S
C71        C1256   1.495       .  S
C72        C1130   1.494       .  S
C73        C1057   1.644   1_455  S
C73        C1071   1.626       .  S
C73        C1085   1.584       .  S
C73        C1760   1.646   1_455  S
C74        C1018   1.635       .  S
C74        C1032   1.628   1_556  S
C74        C1043   1.574       .  S
C74        C1326   1.640       .  S
C75         C990   1.635       .  S
C75        C1001   1.588   1_554  S
C75        C1183   1.647       .  S
C75        C1365   1.652   1_554  S
C76         C945   1.623       .  S
C76         C959   1.618   1_655  S
C76         C976   1.616       .  S
C76        C1816   1.614       .  S
O77         Cu85   1.993       .  S
O77          C87   1.273       .  A
O78         Cu85   2.004   1_454  S
O78          C88   1.276   1_554  A
O79         Cu85   2.059   1_455  S
O79          C89   1.284       .  A
O80         Cu85   2.078   1_554  S
O80          C90   1.286       .  A
O81         Cu86   1.934   1_554  S
O81          C90   1.267       .  A
O82         Cu86   1.914       .  S
O82          C89   1.264   1_655  A
O83         Cu86   2.005   1_455  S
O83          C88   1.277       .  A
O84         Cu86   1.992       .  S
O84          C87   1.277       .  A
Cu85        Cu86   2.352       .  S
C87        C1046   1.464       .  S
C88        C1004   1.477       .  S
C89        C1088   1.499       .  S
C90         C973   1.509       .  S
C91         C920   1.655   1_556  S
C91         C934   1.584       .  S
C91        C1015   1.636       .  S
C91        C1270   1.604       .  S
C92         C875   1.653       .  S
C92         C889   1.651       .  S
C92         C906   1.614       .  S
C92        C1522   1.648   1_545  S
C93         C833   1.654       .  S
C93         C847   1.622   1_556  S
C93         C864   1.617       .  S
C93        C1421   1.589       .  S
C94         C794   1.626       .  S
C94         C808   1.639       .  S
C94         C819   1.607       .  S
C94        C1578   1.631   1_545  S
O95        Cu103   1.958   1_554  S
O95         C105   1.271       .  A
O96        Cu103   1.964   1_565  S
O96         C106   1.273       .  A
O97        Cu103   1.920   1_554  S
O97         C107   1.270       .  A
O98        Cu103   1.978       .  S
O98         C108   1.272       .  A
O99        Cu104   2.055       .  S
O99         C108   1.285       .  A
O100       Cu104   2.019   1_554  S
O100        C107   1.275       .  A
O101       Cu104   2.016   1_565  S
O101        C106   1.277       .  A
O102       Cu104   2.051   1_554  S
O102        C105   1.284       .  A
Cu103      Cu104   2.367       .  S
C105        C861   1.491       .  S
C106        C931   1.465       .  S
C107        C822   1.484       .  S
C108        C903   1.487       .  S
C109        C749   1.632       .  S
C109        C763   1.636       .  S
C109        C777   1.585       .  S
C109        C987   1.628       .  S
C110        C721   1.639       .  S
C110        C738   1.608       .  S
C110        C850   1.644       .  S
C110       C1155   1.633       .  S
C111        C707   1.608       .  S
C111        C917   1.613       .  S
C111       C1200   1.649       .  S
C111       C1561   1.666       .  S
C112        C682   1.616       .  S
C112        C693   1.590       .  S
C112       C1029   1.630       .  S
C112       C1788   1.621       .  S
O113       Cu121   2.015       .  S
O113        C123   1.278       .  A
O114       Cu121   2.035       .  S
O114        C124   1.278       .  A
O115       Cu121   2.050       .  S
O115        C125   1.282       .  A
O116       Cu121   2.033       .  S
O116        C126   1.281       .  A
O117       Cu122   1.955       .  S
O117        C126   1.271       .  A
O118       Cu122   1.943       .  S
O118        C125   1.270       .  A
O119       Cu122   1.967       .  S
O119        C124   1.275       .  A
O120       Cu122   1.991       .  S
O120        C123   1.275       .  A
Cu121      Cu122   2.369       .  S
C123        C735   1.471       .  S
C124        C710   1.486       .  S
C125        C780   1.504       .  S
C126        C696   1.476       .  S
C127        C668   1.588       .  S
C127        C679   1.658   1_556  S
C127        C836   1.660       .  S
C127       C1312   1.622       .  S
C128        C623   1.632       .  S
C128        C637   1.647   1_655  S
C128        C651   1.638   1_655  S
C128       C1746   1.628       .  S
C129        C612   1.583       .  S
C129        C766   1.627       .  S
C129       C1144   1.649       .  S
C129       C1379   1.653   1_554  S
C130        C567   1.624       .  S
C130        C584   1.622       .  S
C130        C595   1.628       .  S
C130       C1802   1.625   1_455  S
O131       Cu139   2.026   1_655  S
O131        C141   1.281       .  A
O132       Cu139   2.021       .  S
O132        C142   1.279       .  A
O133       Cu139   2.022       .  S
O133        C143   1.278       .  A
O134       Cu139   2.002   1_554  S
O134        C144   1.277       .  A
O135       Cu140   2.059   1_554  S
O135        C144   1.284       .  A
O136       Cu140   2.080       .  S
O136        C143   1.288       .  A
O137       Cu140   2.012       .  S
O137        C142   1.276       .  A
O138       Cu140   2.023   1_655  S
O138        C141   1.276       .  A
Cu139      Cu140   2.368       .  S
C141        C665   1.488       .  S
C142        C609   1.482       .  S
C143        C654   1.518       .  S
C144        C598   1.505       .  S
C145        C539   1.646       .  S
C145        C553   1.614       .  S
C145        C878   1.640       .  S
C145       C1480   1.616   1_545  S
C146        C511   1.641   1_655  S
C146        C528   1.587       .  S
C146       C1060   1.659       .  S
C146       C1704   1.612       .  S
C147        C483   1.638       .  S
C147        C497   1.599   1_455  S
C147        C626   1.622       .  S
C147       C1858   1.636   1_455  S
C148        C455   1.624       .  S
C148        C469   1.624       .  S
C148       C1228   1.632       .  S
C148       C1634   1.640   1_545  S
O149       Cu157   1.932   1_565  S
O149        C159   1.270       .  A
O150       Cu157   1.930       .  S
O150        C160   1.270       .  A
O151       Cu157   1.979       .  S
O151        C161   1.273       .  A
O152       Cu157   2.004   1_655  S
O152        C162   1.276       .  A
O153       Cu158   2.053   1_655  S
O153        C162   1.282       .  A
O154       Cu158   2.047       .  S
O154        C161   1.283       .  A
O155       Cu158   2.042       .  S
O155        C160   1.280       .  A
O156       Cu158   2.054   1_565  S
O156        C159   1.282       .  A
Cu157      Cu158   2.359       .  S
C159        C525   1.495       .  S
C160        C500   1.479       .  S
C161        C472   1.486       .  S
C162        C556   1.497       .  S
C163        C413   1.613       .  S
C163        C427   1.642       .  S
C163        C444   1.594       .  S
C163        C486   1.642       .  S
C164        C399   1.596       .  S
C164        C581   1.642       .  S
C164        C752   1.639       .  S
C164        C962   1.664       .  S
C165        C385   1.601       .  S
C165        C640   1.632       .  S
C165       C1074   1.626       .  S
C165       C1354   1.647       .  S
C166        C360   1.628       .  S
C166        C371   1.609       .  S
C166        C514   1.610       .  S
C166       C1617   1.641       .  S
O167       Cu175   2.062       .  S
O167        C177   1.288       .  A
O168       Cu175   2.064       .  S
O168        C178   1.285       .  A
O169       Cu175   2.025       .  S
O169        C179   1.276       .  A
O170       Cu175   2.020       .  S
O170        C180   1.275       .  A
O171       Cu176   1.969       .  S
O171        C180   1.275       .  A
O172       Cu176   1.998       .  S
O172        C179   1.278       .  A
O173       Cu176   1.931       .  S
O173        C178   1.267       .  A
O174       Cu176   1.952       .  S
O174        C177   1.267       .  A
Cu175      Cu176   2.363       .  S
C177        C441   1.486       .  S
C178        C374   1.489       .  S
C179        C388   1.477       .  S
C180        C402   1.508       .  S
C181        C332   1.606       .  S
C181        C343   1.571       .  S
C181        C416   1.633       .  S
C181        C458   1.631       .  S
C182        C315   1.605       .  S
C182        C724   1.614       .  S
C182        C805   1.616       .  S
C182       C1116   1.634       .  S
C183        C301   1.613       .  S
C183        C892   1.623       .  S
C183       C1239   1.649       .  S
C183       C1407   1.617       .  S
C184        C273   1.647       .  S
C184        C287   1.582       .  S
C184        C542   1.646       .  S
C184       C1844   1.686       .  S
O185       Cu193   1.936       .  S
O185        C195   1.271       .  A
O186       Cu193   2.004       .  S
O186        C196   1.277       .  A
O187       Cu193   1.910       .  S
O187        C197   1.266       .  A
O188       Cu193   1.921       .  S
O188        C198   1.266       .  A
O189       Cu194   2.030       .  S
O189        C198   1.281       .  A
O190       Cu194   2.030       .  S
O190        C197   1.281       .  A
O191       Cu194   2.014       .  S
O191        C196   1.276       .  A
O192       Cu194   2.003       .  S
O192        C195   1.275       .  A
Cu193      Cu194   2.372       .  S
C195        C346   1.459       .  S
C196        C290   1.476       .  S
C197        C304   1.456       .  S
C198        C318   1.491       .  S
C199        C259   1.592       .  S
C199        C357   1.653   1_655  S
C199        C948   1.630       .  S
C199       C1690   1.635       .  S
C200        C245   1.610       .  S
C200        C276   1.630       .  S
C200        C791   1.633       .  S
C200       C1466   1.643   1_545  S
C201        C234   1.574       .  S
C201        C329   1.595       .  S
C201       C1102   1.616       .  S
C201       C1648   1.638   1_545  S
C202        C220   1.607   1_455  S
C202        C430   1.676       .  S
C202        C570   1.637       .  S
C202       C1872   1.601   1_455  S
O203       Cu211   2.009   1_565  S
O203        C213   1.279   1_655  A
O204       Cu211   2.029       .  S
O204        C214   1.279       .  A
O205       Cu211   1.985       .  S
O205        C215   1.275       .  A
O206       Cu211   1.958   1_455  S
O206        C216   1.272       .  A
O207       Cu212   2.019       .  S
O207        C216   1.279       .  A
O208       Cu212   2.045   1_655  S
O208        C215   1.282       .  A
O209       Cu212   2.036       .  S
O209        C214   1.280   1_455  A
O210       Cu212   2.027   1_565  S
O210        C213   1.278       .  A
Cu211      Cu212   2.372   1_655  S
C213        C262   1.485       .  S
C214        C217   1.493       .  S
C215        C248   1.489       .  S
C216        C231   1.476       .  S
C217        C218   1.407   1_655  A
C217        C222   1.411       .  A
C218        C219   1.407       .  A
C218        C223   1.443       .  S
C219        C220   1.406   1_455  A
C219        C226   1.448       .  S
C220        C221   1.444       .  A
C221        C222   1.431       .  A
C221        C224   1.440       .  S
C222        C225   1.450       .  S
C223        N230   1.156       .  T
C224        N229   1.157       .  T
C225        N227   1.157       .  T
C226        N228   1.158       .  T
C231        C232   1.415   1_545  A
C231        C236   1.408       .  A
C232        C233   1.418       .  A
C232        C237   1.446       .  S
C233        C234   1.431   1_565  A
C233        C240   1.446       .  S
C234        C235   1.427       .  A
C235        C236   1.384       .  A
C235        C238   1.444       .  S
C236        C239   1.449       .  S
C237        N244   1.158       .  T
C238        N243   1.158       .  T
C239        N241   1.156       .  T
C240        N242   1.157       .  T
C245        C246   1.413       .  A
C245        C250   1.437   1_545  A
C246        C247   1.395       .  A
C246        C251   1.440       .  S
C247        C248   1.404       .  A
C247        C254   1.448       .  S
C248        C249   1.412   1_545  A
C249        C250   1.434       .  A
C249        C252   1.450       .  S
C250        C253   1.446       .  S
C251        N258   1.157       .  T
C252        N257   1.157       .  T
C253        N255   1.158       .  T
C254        N256   1.156       .  T
C259        C260   1.440       .  A
C259        C264   1.432   1_655  A
C260        C261   1.402       .  A
C260        C265   1.446       .  S
C261        C262   1.394   1_655  A
C261        C268   1.452       .  S
C262        C263   1.411       .  A
C263        C264   1.423       .  A
C263        C266   1.442       .  S
C264        C267   1.453       .  S
C265        N272   1.158       .  T
C266        N271   1.154       .  T
C267        N269   1.157       .  T
C268        N270   1.155       .  T
C273        C274   1.463       .  A
C273        C278   1.407       .  A
C274        C275   1.448       .  A
C274        C279   1.446       .  S
C275        C276   1.438       .  A
C275        C282   1.449       .  S
C276        C277   1.427       .  A
C277        C278   1.410       .  A
C277        C280   1.443       .  S
C278        C281   1.425       .  S
C279        N286   1.158       .  T
C280        N285   1.157       .  T
C281        N283   1.151       .  T
C282        N284   1.155       .  T
C287        C288   1.442       .  A
C287        C292   1.440       .  A
C288        C289   1.415       .  A
C288        C293   1.449       .  S
C289        C290   1.396       .  A
C289        C296   1.450       .  S
C290        C291   1.399       .  A
C291        C292   1.413       .  A
C291        C294   1.453       .  S
C292        C295   1.448       .  S
C293        N300   1.157       .  T
C294        N299   1.157       .  T
C295        N297   1.156       .  T
C296        N298   1.157       .  T
C301        C302   1.446       .  A
C301        C306   1.431       .  A
C302        C303   1.375       .  A
C302        C307   1.451       .  S
C303        C304   1.395       .  A
C303        C310   1.461       .  S
C304        C305   1.405       .  A
C305        C306   1.424       .  A
C305        C308   1.448       .  S
C306        C309   1.439       .  S
C307        N314   1.157       .  T
C308        N313   1.157       .  T
C309        N311   1.156       .  T
C310        N312   1.157       .  T
C315        C316   1.436       .  A
C315        C320   1.451       .  A
C316        C317   1.413       .  A
C316        C321   1.432       .  S
C317        C318   1.404       .  A
C317        C324   1.454       .  S
C318        C319   1.412       .  A
C319        C320   1.400       .  A
C319        C322   1.460       .  S
C320        C323   1.455       .  S
C321        N328   1.151       .  T
C322        N327   1.158       .  T
C323        N325   1.154       .  T
C324        N326   1.157       .  T
C329        C330   1.418       .  A
C329        C334   1.431       .  A
C330        C331   1.399       .  A
C330        C335   1.436       .  S
C331        C332   1.431       .  A
C331        C338   1.441       .  S
C332        C333   1.430       .  A
C333        C334   1.429       .  A
C333        C336   1.431       .  S
C334        C337   1.448       .  S
C335        N342   1.157       .  T
C336        N341   1.154       .  T
C337        N339   1.158       .  T
C338        N340   1.157       .  T
C343        C344   1.437       .  A
C343        C348   1.428       .  A
C344        C345   1.416       .  A
C344        C349   1.448       .  S
C345        C346   1.408       .  A
C345        C352   1.449       .  S
C346        C347   1.401       .  A
C347        C348   1.382       .  A
C347        C350   1.458       .  S
C348        C351   1.441       .  S
C349        N356   1.156       .  T
C350        N355   1.157       .  T
C351        N353   1.156       .  T
C352        N354   1.157       .  T
C357        C358   1.438       .  A
C357        C362   1.438       .  A
C358        C359   1.437       .  A
C358        C363   1.452       .  S
C359        C360   1.441       .  A
C359        C366   1.447       .  S
C360        C361   1.434       .  A
C361        C362   1.422       .  A
C361        C364   1.460       .  S
C362        C365   1.450       .  S
C363        N370   1.158       .  T
C364        N369   1.157       .  T
C365        N367   1.159       .  T
C366        N368   1.158       .  T
C371        C372   1.447       .  A
C371        C376   1.449       .  A
C372        C373   1.428       .  A
C372        C377   1.447       .  S
C373        C374   1.403       .  A
C373        C380   1.451       .  S
C374        C375   1.403       .  A
C375        C376   1.401       .  A
C375        C378   1.462       .  S
C376        C379   1.449       .  S
C377        N384   1.157       .  T
C378        N383   1.156       .  T
C379        N381   1.155       .  T
C380        N382   1.157       .  T
C385        C386   1.455       .  A
C385        C390   1.441       .  A
C386        C387   1.409       .  A
C386        C391   1.455       .  S
C387        C388   1.388       .  A
C387        C394   1.452       .  S
C388        C389   1.396       .  A
C389        C390   1.419       .  A
C389        C392   1.448       .  S
C390        C393   1.446       .  S
C391        N398   1.157       .  T
C392        N397   1.156       .  T
C393        N395   1.157       .  T
C394        N396   1.157       .  T
C399        C400   1.422       .  A
C399        C404   1.454       .  A
C400        C401   1.424       .  A
C400        C405   1.445       .  S
C401        C402   1.422       .  A
C401        C408   1.451       .  S
C402        C403   1.412       .  A
C403        C404   1.405       .  A
C403        C406   1.463       .  S
C404        C407   1.457       .  S
C405        N412   1.156       .  T
C406        N411   1.158       .  T
C407        N409   1.157       .  T
C408        N410   1.157       .  T
C413        C414   1.424       .  A
C413        C418   1.446       .  A
C414        C415   1.413       .  A
C414        C419   1.442       .  S
C415        C416   1.421       .  A
C415        C422   1.444       .  S
C416        C417   1.446       .  A
C417        C418   1.439       .  A
C417        C420   1.456       .  S
C418        C421   1.455       .  S
C419        N426   1.155       .  T
C420        N425   1.158       .  T
C421        N423   1.158       .  T
C422        N424   1.155       .  T
C427        C428   1.431       .  A
C427        C432   1.392       .  A
C428        C429   1.463       .  A
C428        C433   1.445       .  S
C429        C430   1.472       .  A
C429        C436   1.449       .  S
C430        C431   1.457       .  A
C431        C432   1.408       .  A
C431        C434   1.433       .  S
C432        C435   1.443       .  S
C433        N440   1.157       .  T
C434        N439   1.156   1_455  T
C435        N437   1.157       .  T
C436        N438   1.158       .  T
C441        C442   1.409       .  A
C441        C446   1.402       .  A
C442        C443   1.397       .  A
C442        C447   1.447       .  S
C443        C444   1.420       .  A
C443        C450   1.442       .  S
C444        C445   1.445       .  A
C445        C446   1.423       .  A
C445        C448   1.440       .  S
C446        C449   1.451       .  S
C447        N454   1.155       .  T
C448        N453   1.155       .  T
C449        N451   1.157       .  T
C450        N452   1.159       .  T
C455        C456   1.438       .  A
C455        C460   1.422       .  A
C456        C457   1.432       .  A
C456        C461   1.453       .  S
C457        C458   1.441       .  A
C457        C464   1.458       .  S
C458        C459   1.444       .  A
C459        C460   1.424       .  A
C459        C462   1.447       .  S
C460        C463   1.453       .  S
C461        N468   1.158   1_545  T
C462        N467   1.158       .  T
C463        N465   1.157       .  T
C464        N466   1.158       .  T
C469        C470   1.445   1_545  A
C469        C474   1.423       .  A
C470        C471   1.430       .  A
C470        C475   1.439       .  S
C471        C472   1.406   1_565  A
C471        C478   1.452       .  S
C472        C473   1.402       .  A
C473        C474   1.403       .  A
C473        C476   1.452       .  S
C474        C477   1.438       .  S
C475        N482   1.158       .  T
C476        N481   1.157       .  T
C477        N479   1.157       .  T
C478        N480   1.157       .  T
C483        C484   1.452       .  A
C483        C488   1.404       .  A
C484        C485   1.472       .  A
C484        C489   1.446       .  S
C485        C486   1.462       .  A
C485        C492   1.441       .  S
C486        C487   1.419       .  A
C487        C488   1.405       .  A
C487        C490   1.440       .  S
C488        C491   1.441       .  S
C489        N496   1.157       .  T
C490        N495   1.156       .  T
C491        N493   1.158       .  T
C492        N494   1.156       .  T
C497        C498   1.452   1_655  A
C497        C502   1.439       .  A
C498        C499   1.427       .  A
C498        C503   1.451       .  S
C499        C500   1.400       .  A
C499        C506   1.451       .  S
C500        C501   1.396   1_455  A
C501        C502   1.393       .  A
C501        C504   1.466       .  S
C502        C505   1.434       .  S
C503        N510   1.158       .  T
C504        N509   1.156       .  T
C505        N507   1.151       .  T
C506        N508   1.157       .  T
C511        C512   1.449       .  A
C511        C516   1.416       .  A
C512        C513   1.440       .  A
C512        C517   1.462       .  S
C513        C514   1.438       .  A
C513        C520   1.440       .  S
C514        C515   1.425       .  A
C515        C516   1.383       .  A
C515        C518   1.451       .  S
C516        C519   1.428   1_455  S
C517        N524   1.159       .  T
C518        N523   1.157       .  T
C519        N521   1.149       .  T
C520        N522   1.158       .  T
C525        C526   1.403       .  A
C525        C530   1.408   1_455  A
C526        C527   1.395       .  A
C526        C531   1.460       .  S
C527        C528   1.436   1_455  A
C527        C534   1.446       .  S
C528        C529   1.445       .  A
C529        C530   1.430       .  A
C529        C532   1.443       .  S
C530        C533   1.453       .  S
C531        N538   1.158       .  T
C532        N537   1.158       .  T
C533        N535   1.157       .  T
C534        N536   1.156       .  T
C539        C540   1.447       .  A
C539        C544   1.427       .  A
C540        C541   1.424       .  A
C540        C545   1.444       .  S
C541        C542   1.424       .  A
C541        C548   1.434       .  S
C542        C543   1.448       .  A
C543        C544   1.439       .  A
C543        C546   1.442       .  S
C544        C547   1.450       .  S
C545        N552   1.156       .  T
C546        N551   1.157       .  T
C547        N549   1.158       .  T
C548        N550   1.150       .  T
C553        C554   1.444       .  A
C553        C558   1.438   1_545  A
C554        C555   1.435       .  A
C554        C559   1.453       .  S
C555        C556   1.414       .  A
C555        C562   1.448       .  S
C556        C557   1.398   1_545  A
C557        C558   1.402       .  A
C557        C560   1.457       .  S
C558        C561   1.442       .  S
C559        N566   1.157       .  T
C560        N565   1.157       .  T
C561        N563   1.159       .  T
C562        N564   1.157       .  T
C567        C568   1.438   1_455  A
C567        C572   1.427       .  A
C568        C569   1.436       .  A
C568        C573   1.457       .  S
C569        C570   1.449   1_655  A
C569        C576   1.450       .  S
C570        C571   1.413       .  A
C571        C572   1.424       .  A
C571        C574   1.435       .  S
C572        C575   1.443       .  S
C573        N580   1.157       .  T
C574        N579   1.154       .  T
C575        N577   1.156       .  T
C576        N578   1.158       .  T
C581        C582   1.444       .  A
C581        C586   1.423       .  A
C582        C583   1.415       .  A
C582        C587   1.450       .  S
C583        C584   1.417       .  A
C583        C590   1.442       .  S
C584        C585   1.442       .  A
C585        C586   1.439       .  A
C585        C588   1.451       .  S
C586        C589   1.433       .  S
C587        N594   1.157       .  T
C588        N593   1.156       .  T
C589        N591   1.155       .  T
C590        N592   1.156       .  T
C595        C596   1.445   1_455  A
C595        C600   1.434       .  A
C596        C597   1.434       .  A
C596        C601   1.444       .  S
C597        C598   1.411   1_655  A
C597        C604   1.450       .  S
C598        C599   1.407       .  A
C599        C600   1.408       .  A
C599        C602   1.451       .  S
C600        C603   1.451       .  S
C601        N608   1.158       .  T
C602        N607   1.157       .  T
C603        N605   1.158       .  T
C604        N606   1.157       .  T
C609        C610   1.403       .  A
C609        C614   1.406   1_556  A
C610        C611   1.413       .  A
C610        C615   1.449       .  S
C611        C612   1.439   1_556  A
C611        C618   1.452       .  S
C612        C613   1.427       .  A
C613        C614   1.414       .  A
C613        C616   1.447       .  S
C614        C617   1.451       .  S
C615        N622   1.157       .  T
C616        N621   1.157       .  T
C617        N619   1.157       .  T
C618        N620   1.157       .  T
C623        C624   1.445   1_655  A
C623        C628   1.440       .  A
C624        C625   1.437       .  A
C624        C629   1.448       .  S
C625        C626   1.436       .  A
C625        C632   1.448       .  S
C626        C627   1.431   1_455  A
C627        C628   1.418       .  A
C627        C630   1.442       .  S
C628        C631   1.452       .  S
C629        N636   1.158       .  T
C630        N635   1.157       .  T
C631        N633   1.159       .  T
C632        N634   1.158       .  T
C637        C638   1.448       .  A
C637        C642   1.435       .  A
C638        C639   1.441       .  A
C638        C643   1.447       .  S
C639        C640   1.437       .  A
C639        C646   1.458       .  S
C640        C641   1.440       .  A
C641        C642   1.439       .  A
C641        C644   1.447       .  S
C642        C645   1.448       .  S
C643        N650   1.158       .  T
C644        N649   1.158       .  T
C645        N647   1.156       .  T
C646        N648   1.157       .  T
C651        C652   1.422       .  A
C651        C656   1.458   1_455  A
C652        C653   1.413       .  A
C652        C657   1.439       .  S
C653        C654   1.411       .  A
C653        C660   1.444       .  S
C654        C655   1.410   1_455  A
C655        C656   1.441       .  A
C655        C658   1.453       .  S
C656        C659   1.436       .  S
C657        N664   1.158       .  T
C658        N663   1.157       .  T
C659        N661   1.158       .  T
C660        N662   1.156       .  T
C665        C666   1.412   1_556  A
C665        C670   1.395       .  A
C666        C667   1.427       .  A
C666        C671   1.446       .  S
C667        C668   1.437   1_554  A
C667        C674   1.452       .  S
C668        C669   1.438       .  A
C669        C670   1.403       .  A
C669        C672   1.450       .  S
C670        C673   1.444       .  S
C671        N678   1.156       .  T
C672        N677   1.158       .  T
C673        N675   1.152       .  T
C674        N676   1.157       .  T
C679        C680   1.432       .  A
C679        C684   1.461       .  A
C680        C681   1.415       .  A
C680        C685   1.441       .  S
C681        C682   1.429       .  A
C681        C688   1.450       .  S
C682        C683   1.429       .  A
C683        C684   1.441       .  A
C683        C686   1.445       .  S
C684        C687   1.448       .  S
C685        N692   1.157       .  T
C686        N691   1.155       .  T
C687        N689   1.159       .  T
C688        N690   1.157       .  T
C693        C694   1.443       .  A
C693        C698   1.429       .  A
C694        C695   1.423       .  A
C694        C699   1.447       .  S
C695        C696   1.405       .  A
C695        C702   1.451       .  S
C696        C697   1.406       .  A
C697        C698   1.393       .  A
C697        C700   1.453       .  S
C698        C701   1.452       .  S
C699        N706   1.157       .  T
C700        N705   1.157       .  T
C701        N703   1.159       .  T
C702        N704   1.157       .  T
C707        C708   1.438       .  A
C707        C712   1.442       .  A
C708        C709   1.425       .  A
C708        C713   1.455       .  S
C709        C710   1.410       .  A
C709        C716   1.451       .  S
C710        C711   1.404       .  A
C711        C712   1.396       .  A
C711        C714   1.454       .  S
C712        C715   1.455       .  S
C713        N720   1.158       .  T
C714        N719   1.155       .  T
C715        N717   1.154       .  T
C716        N718   1.157       .  T
C721        C722   1.445       .  A
C721        C726   1.453       .  A
C722        C723   1.437       .  A
C722        C727   1.446       .  S
C723        C724   1.426       .  A
C723        C730   1.451       .  S
C724        C725   1.425       .  A
C725        C726   1.423       .  A
C725        C728   1.453       .  S
C726        C729   1.451       .  S
C727        N734   1.158       .  T
C728        N733   1.158       .  T
C729        N731   1.159       .  T
C730        N732   1.156       .  T
C735        C736   1.393       .  A
C735        C740   1.402       .  A
C736        C737   1.408       .  A
C736        C741   1.454       .  S
C737        C738   1.457       .  A
C737        C744   1.452       .  S
C738        C739   1.418       .  A
C739        C740   1.413       .  A
C739        C742   1.438       .  S
C740        C743   1.449       .  S
C741        N748   1.155       .  T
C742        N747   1.155       .  T
C743        N745   1.157       .  T
C744        N746   1.158       .  T
C749        C750   1.442       .  A
C749        C754   1.433       .  A
C750        C751   1.442       .  A
C750        C755   1.440       .  S
C751        C752   1.442       .  A
C751        C758   1.442       .  S
C752        C753   1.437       .  A
C753        C754   1.406       .  A
C753        C756   1.443       .  S
C754        C757   1.445       .  S
C755        N762   1.158       .  T
C756        N761   1.158       .  T
C757        N759   1.157       .  T
C758        N760   1.158       .  T
C763        C764   1.423       .  A
C763        C768   1.469       .  A
C764        C765   1.388       .  A
C764        C769   1.435       .  S
C765        C766   1.400       .  A
C765        C772   1.447       .  S
C766        C767   1.443       .  A
C767        C768   1.456       .  A
C767        C770   1.450       .  S
C768        C771   1.451       .  S
C769        N776   1.154       .  T
C770        N775   1.158       .  T
C771        N773   1.157       .  T
C772        N774   1.156       .  T
C777        C778   1.428       .  A
C777        C782   1.439       .  A
C778        C779   1.396       .  A
C778        C783   1.437       .  S
C779        C780   1.410       .  A
C779        C786   1.458       .  S
C780        C781   1.413       .  A
C781        C782   1.429       .  A
C781        C784   1.452       .  S
C782        C785   1.438       .  S
C783        N790   1.151       .  T
C784        N789   1.158       .  T
C785        N787   1.154       .  T
C786        N788   1.157       .  T
C791        C792   1.439   1_545  A
C791        C796   1.443       .  A
C792        C793   1.439       .  A
C792        C797   1.448       .  S
C793        C794   1.432   1_565  A
C793        C800   1.452       .  S
C794        C795   1.429       .  A
C795        C796   1.435       .  A
C795        C798   1.456       .  S
C796        C799   1.447       .  S
C797        N804   1.158       .  T
C798        N803   1.157       .  T
C799        N801   1.157       .  T
C800        N802   1.157       .  T
C805        C806   1.437       .  A
C805        C810   1.426       .  A
C806        C807   1.421       .  A
C806        C811   1.459       .  S
C807        C808   1.436       .  A
C807        C814   1.429       .  S
C808        C809   1.438       .  A
C809        C810   1.425       .  A
C809        C812   1.455       .  S
C810        C813   1.441       .  S
C811        N818   1.158       .  T
C812        N817   1.158       .  T
C813        N815   1.157       .  T
C814        N816   1.152       .  T
C819        C820   1.451       .  A
C819        C824   1.454   1_545  A
C820        C821   1.428       .  A
C820        C825   1.442       .  S
C821        C822   1.405       .  A
C821        C828   1.452       .  S
C822        C823   1.394   1_545  A
C823        C824   1.382       .  A
C823        C826   1.462       .  S
C824        C827   1.453   1_565  S
C825        N832   1.157       .  T
C826        N831   1.157       .  T
C827        N829   1.155       .  T
C828        N830   1.157       .  T
C833        C834   1.435       .  A
C833        C838   1.445       .  A
C834        C835   1.446       .  A
C834        C839   1.459       .  S
C835        C836   1.462       .  A
C835        C842   1.454       .  S
C836        C837   1.443       .  A
C837        C838   1.436       .  A
C837        C840   1.467       .  S
C838        C841   1.447       .  S
C839        N846   1.159       .  T
C840        N845   1.157       .  T
C841        N843   1.158       .  T
C842        N844   1.159       .  T
C847        C848   1.436       .  A
C847        C852   1.424       .  A
C848        C849   1.413       .  A
C848        C853   1.435       .  S
C849        C850   1.424       .  A
C849        C856   1.455       .  S
C850        C851   1.449       .  A
C851        C852   1.448       .  A
C851        C854   1.440       .  S
C852        C855   1.448       .  S
C853        N860   1.150   1_554  T
C854        N859   1.158       .  T
C855        N857   1.157       .  T
C856        N858   1.154       .  T
C861        C862   1.394   1_554  A
C861        C866   1.408       .  A
C862        C863   1.390       .  A
C862        C867   1.450       .  S
C863        C864   1.441       .  A
C863        C870   1.440       .  S
C864        C865   1.451   1_556  A
C865        C866   1.431       .  A
C865        C868   1.445       .  S
C866        C869   1.450       .  S
C867        N874   1.158       .  T
C868        N873   1.157       .  T
C869        N871   1.157       .  T
C870        N872   1.158       .  T
C875        C876   1.411   1_545  A
C875        C880   1.461       .  A
C876        C877   1.407       .  A
C876        C881   1.453       .  S
C877        C878   1.432   1_565  A
C877        C884   1.424       .  S
C878        C879   1.437       .  A
C879        C880   1.450       .  A
C879        C882   1.452   1_545  S
C880        C883   1.444       .  S
C881        N888   1.159       .  T
C882        N887   1.158       .  T
C883        N885   1.158       .  T
C884        N886   1.148       .  T
C889        C890   1.420       .  A
C889        C894   1.452       .  A
C890        C891   1.447       .  A
C890        C895   1.447       .  S
C891        C892   1.426       .  A
C891        C898   1.429       .  S
C892        C893   1.428       .  A
C893        C894   1.418       .  A
C893        C896   1.473       .  S
C894        C897   1.414       .  S
C895        N902   1.158       .  T
C896        N901   1.157       .  T
C897        N899   1.151   1_545  T
C898        N900   1.153       .  T
C903        C904   1.414   1_545  A
C903        C908   1.401       .  A
C904        C905   1.429       .  A
C904        C909   1.450       .  S
C905        C906   1.442   1_565  A
C905        C912   1.445       .  S
C906        C907   1.437       .  A
C907        C908   1.392       .  A
C907        C910   1.451       .  S
C908        C911   1.446       .  S
C909        N916   1.157       .  T
C910        N915   1.159       .  T
C911        N913   1.154       .  T
C912        N914   1.156       .  T
C917        C918   1.416       .  A
C917        C922   1.439       .  A
C918        C919   1.431       .  A
C918        C923   1.444       .  S
C919        C920   1.441       .  A
C919        C926   1.449       .  S
C920        C921   1.442       .  A
C921        C922   1.433       .  A
C921        C924   1.429       .  S
C922        C925   1.458       .  S
C923        N930   1.156       .  T
C924        N929   1.155       .  T
C925        N927   1.157       .  T
C926        N928   1.156       .  T
C931        C932   1.410   1_556  A
C931        C936   1.394       .  A
C932        C933   1.423       .  A
C932        C937   1.449       .  S
C933        C934   1.436   1_554  A
C933        C940   1.450       .  S
C934        C935   1.438       .  A
C935        C936   1.389       .  A
C935        C938   1.445       .  S
C936        C939   1.457       .  S
C937        N944   1.157       .  T
C938        N943   1.158       .  T
C939        N941   1.157       .  T
C940        N942   1.157       .  T
C945        C946   1.432   1_655  A
C945        C950   1.441       .  A
C946        C947   1.424       .  A
C946        C951   1.445       .  S
C947        C948   1.438   1_455  A
C947        C954   1.449   1_455  S
C948        C949   1.436       .  A
C949        C950   1.434       .  A
C949        C952   1.442       .  S
C950        C953   1.448       .  S
C951        N958   1.157       .  T
C952        N957   1.154       .  T
C953        N955   1.158       .  T
C954        N956   1.158       .  T
C959        C960   1.451       .  A
C959        C964   1.442       .  A
C960        C961   1.435       .  A
C960        C965   1.447       .  S
C961        C962   1.417       .  A
C961        C968   1.452       .  S
C962        C963   1.431       .  A
C963        C964   1.412       .  A
C963        C966   1.455       .  S
C964        C967   1.439       .  S
C965        N972   1.158       .  T
C966        N971   1.157       .  T
C967        N969   1.158       .  T
C968        N970   1.157       .  T
C973        C974   1.408       .  A
C973        C978   1.407       .  A
C974        C975   1.397       .  A
C974        C979   1.460       .  S
C975        C976   1.444       .  A
C975        C982   1.441   1_655  S
C976        C977   1.450       .  A
C977        C978   1.430       .  A
C977        C980   1.442       .  S
C978        C981   1.450       .  S
C979        N986   1.158       .  T
C980        N985   1.157       .  T
C981        N983   1.157       .  T
C982        N984   1.156       .  T
C987        C988   1.452       .  A
C987        C992   1.437       .  A
C988        C989   1.429       .  A
C988        C993   1.453       .  S
C989        C990   1.414       .  A
C989        C996   1.450       .  S
C990        C991   1.424       .  A
C991        C992   1.422       .  A
C991        C994   1.449       .  S
C992        C995   1.451       .  S
C993       N1000   1.158       .  T
C994        N999   1.158       .  T
C995        N997   1.155       .  T
C996        N998   1.157       .  T
C1001      C1002   1.433       .  A
C1001      C1006   1.436   1_556  A
C1002      C1003   1.406       .  A
C1002      C1007   1.453       .  S
C1003      C1004   1.403       .  A
C1003      C1010   1.447       .  S
C1004      C1005   1.403   1_556  A
C1005      C1006   1.416       .  A
C1005      C1008   1.454       .  S
C1006      C1009   1.442       .  S
C1007      N1014   1.157       .  T
C1008      N1013   1.157       .  T
C1009      N1011   1.156       .  T
C1010      N1012   1.155       .  T
C1015      C1016   1.434       .  A
C1015      C1020   1.432       .  A
C1016      C1017   1.447   1_556  A
C1016      C1021   1.439       .  S
C1017      C1018   1.433   1_554  A
C1017      C1024   1.456       .  S
C1018      C1019   1.444       .  A
C1019      C1020   1.415       .  A
C1019      C1022   1.452   1_556  S
C1020      C1023   1.455       .  S
C1021      N1028   1.153       .  T
C1022      N1027   1.158       .  T
C1023      N1025   1.158       .  T
C1024      N1026   1.157       .  T
C1029      C1030   1.439       .  A
C1029      C1034   1.442       .  A
C1030      C1031   1.434       .  A
C1030      C1035   1.452       .  S
C1031      C1032   1.444       .  A
C1031      C1038   1.457       .  S
C1032      C1033   1.414       .  A
C1033      C1034   1.419       .  A
C1033      C1036   1.447       .  S
C1034      C1037   1.432       .  S
C1035      N1042   1.157       .  T
C1036      N1041   1.157       .  T
C1037      N1039   1.153       .  T
C1038      N1040   1.158       .  T
C1043      C1044   1.426       .  A
C1043      C1048   1.436   1_556  A
C1044      C1045   1.418       .  A
C1044      C1049   1.451       .  S
C1045      C1046   1.409       .  A
C1045      C1052   1.449       .  S
C1046      C1047   1.395   1_556  A
C1047      C1048   1.396       .  A
C1047      C1050   1.455       .  S
C1048      C1051   1.444       .  S
C1049      N1056   1.157       .  T
C1050      N1055   1.156       .  T
C1051      N1053   1.157       .  T
C1052      N1054   1.157       .  T
C1057      C1058   1.438   1_655  A
C1057      C1062   1.434       .  A
C1058      C1059   1.445       .  A
C1058      C1063   1.456       .  S
C1059      C1060   1.441   1_455  A
C1059      C1066   1.441       .  S
C1060      C1061   1.452       .  A
C1061      C1062   1.448       .  A
C1061      C1064   1.458       .  S
C1062      C1065   1.444       .  S
C1063      N1070   1.158       .  T
C1064      N1069   1.158       .  T
C1065      N1067   1.158       .  T
C1066      N1068   1.159       .  T
C1071      C1072   1.414       .  A
C1071      C1076   1.443       .  A
C1072      C1073   1.431       .  A
C1072      C1077   1.452       .  S
C1073      C1074   1.452       .  A
C1073      C1080   1.449       .  S
C1074      C1075   1.431       .  A
C1075      C1076   1.428       .  A
C1075      C1078   1.436       .  S
C1076      C1079   1.465       .  S
C1077      N1084   1.155       .  T
C1078      N1083   1.155       .  T
C1079      N1081   1.158       .  T
C1080      N1082   1.157       .  T
C1085      C1086   1.440       .  A
C1085      C1090   1.443       .  A
C1086      C1087   1.424   1_455  A
C1086      C1091   1.442       .  S
C1087      C1088   1.410   1_655  A
C1087      C1094   1.452       .  S
C1088      C1089   1.416       .  A
C1089      C1090   1.398       .  A
C1089      C1092   1.462       .  S
C1090      C1093   1.454       .  S
C1091      N1098   1.156       .  T
C1092      N1097   1.158       .  T
C1093      N1095   1.155   1_455  T
C1094      N1096   1.157       .  T
C1099      C1100   1.434       .  A
C1099      C1104   1.438   1_545  A
C1100      C1101   1.433       .  A
C1100      C1105   1.454       .  S
C1101      C1102   1.448       .  A
C1101      C1108   1.452       .  S
C1102      C1103   1.417       .  A
C1103      C1104   1.422   1_545  A
C1103      C1106   1.451       .  S
C1104      C1107   1.441       .  S
C1105      N1112   1.157       .  T
C1106      N1111   1.156       .  T
C1107      N1109   1.155       .  T
C1108      N1110   1.158       .  T
C1113      C1114   1.415       .  A
C1113      C1118   1.445       .  A
C1114      C1115   1.427       .  A
C1114      C1119   1.452       .  S
C1115      C1116   1.436       .  A
C1115      C1122   1.435       .  S
C1116      C1117   1.434       .  A
C1117      C1118   1.424       .  A
C1117      C1120   1.455       .  S
C1118      C1121   1.434       .  S
C1119      N1126   1.158       .  T
C1120      N1125   1.157       .  T
C1121      N1123   1.158       .  T
C1122      N1124   1.156       .  T
C1127      C1128   1.427       .  A
C1127      C1132   1.454   1_545  A
C1128      C1129   1.387       .  A
C1128      C1133   1.449       .  S
C1129      C1130   1.412       .  A
C1129      C1136   1.453       .  S
C1130      C1131   1.408   1_545  A
C1131      C1132   1.433       .  A
C1131      C1134   1.452       .  S
C1132      C1135   1.443       .  S
C1133      N1140   1.158       .  T
C1134      N1139   1.157       .  T
C1135      N1137   1.157       .  T
C1136      N1138   1.158       .  T
C1141      C1142   1.432       .  A
C1141      C1146   1.447       .  A
C1142      C1143   1.437       .  A
C1142      C1147   1.453       .  S
C1143      C1144   1.456       .  A
C1143      C1150   1.453   1_554  S
C1144      C1145   1.434       .  A
C1145      C1146   1.444       .  A
C1145      C1148   1.459       .  S
C1146      C1149   1.445       .  S
C1147      N1154   1.157       .  T
C1148      N1153   1.156       .  T
C1149      N1151   1.158       .  T
C1150      N1152   1.159       .  T
C1155      C1156   1.438       .  A
C1155      C1160   1.435       .  A
C1156      C1157   1.442       .  A
C1156      C1161   1.442       .  S
C1157      C1158   1.422       .  A
C1157      C1164   1.453       .  S
C1158      C1159   1.435       .  A
C1159      C1160   1.425       .  A
C1159      C1162   1.447       .  S
C1160      C1163   1.454       .  S
C1161      N1168   1.157       .  T
C1162      N1167   1.154   1_554  T
C1163      N1165   1.158       .  T
C1164      N1166   1.157       .  T
C1169      C1170   1.450       .  A
C1169      C1174   1.458   1_554  A
C1170      C1171   1.401       .  A
C1170      C1175   1.436       .  S
C1171      C1172   1.382       .  A
C1171      C1178   1.451       .  S
C1172      C1173   1.393   1_554  A
C1173      C1174   1.419       .  A
C1173      C1176   1.454       .  S
C1174      C1177   1.443       .  S
C1175      N1182   1.155       .  T
C1176      N1181   1.157       .  T
C1177      N1179   1.157       .  T
C1178      N1180   1.156       .  T
C1183      C1184   1.443       .  A
C1183      C1188   1.453   1_554  A
C1184      C1185   1.432       .  A
C1184      C1189   1.456       .  S
C1185      C1186   1.433       .  A
C1185      C1192   1.444       .  S
C1186      C1187   1.412       .  A
C1187      C1188   1.418   1_554  A
C1187      C1190   1.449       .  S
C1188      C1191   1.447       .  S
C1189      N1196   1.156       .  T
C1190      N1195   1.158       .  T
C1191      N1193   1.158       .  T
C1192      N1194   1.156       .  T
C1197      C1198   1.432       .  A
C1197      C1202   1.424       .  A
C1198      C1199   1.431       .  A
C1198      C1203   1.450       .  S
C1199      C1200   1.435       .  A
C1199      C1206   1.438       .  S
C1200      C1201   1.461       .  A
C1201      C1202   1.428       .  A
C1201      C1204   1.456       .  S
C1202      C1205   1.451       .  S
C1203      N1210   1.157       .  T
C1204      N1209   1.160       .  T
C1205      N1207   1.156   1_554  T
C1206      N1208   1.157       .  T
C1211      C1212   1.445   1_554  A
C1211      C1216   1.430       .  A
C1212      C1213   1.422       .  A
C1212      C1217   1.450       .  S
C1213      C1214   1.404   1_556  A
C1213      C1220   1.452       .  S
C1214      C1215   1.394       .  A
C1215      C1216   1.386       .  A
C1215      C1218   1.455       .  S
C1216      C1219   1.447       .  S
C1217      N1224   1.157       .  T
C1218      N1223   1.157       .  T
C1219      N1221   1.154       .  T
C1220      N1222   1.157       .  T
C1225      C1226   1.433       .  A
C1225      C1230   1.449   1_545  A
C1226      C1227   1.431       .  A
C1226      C1231   1.449       .  S
C1227      C1228   1.441       .  A
C1227      C1234   1.447       .  S
C1228      C1229   1.432   1_545  A
C1229      C1230   1.442       .  A
C1229      C1232   1.457       .  S
C1230      C1233   1.445       .  S
C1231      N1238   1.158       .  T
C1232      N1237   1.158       .  T
C1233      N1235   1.157       .  T
C1234      N1236   1.157       .  T
C1239      C1240   1.439       .  A
C1239      C1244   1.424       .  A
C1240      C1241   1.457       .  A
C1240      C1245   1.441       .  S
C1241      C1242   1.445       .  A
C1241      C1248   1.451       .  S
C1242      C1243   1.445       .  A
C1243      C1244   1.415       .  A
C1243      C1246   1.442       .  S
C1244      C1247   1.460       .  S
C1245      N1252   1.157       .  T
C1246      N1251   1.155   1_545  T
C1247      N1249   1.156       .  T
C1248      N1250   1.157       .  T
C1253      C1254   1.440       .  A
C1253      C1258   1.458       .  A
C1254      C1255   1.392   1_545  A
C1254      C1259   1.439       .  S
C1255      C1256   1.398   1_565  A
C1255      C1262   1.467       .  S
C1256      C1257   1.402       .  A
C1257      C1258   1.437       .  A
C1257      C1260   1.450       .  S
C1258      C1261   1.445       .  S
C1259      N1266   1.158       .  T
C1260      N1265   1.157       .  T
C1261      N1263   1.157       .  T
C1262      N1264   1.157       .  T
C1267      C1268   1.451       .  A
C1267      C1272   1.418       .  A
C1268      C1269   1.447       .  A
C1268      C1273   1.444       .  S
C1269      C1270   1.432       .  A
C1269      C1276   1.450       .  S
C1270      C1271   1.410       .  A
C1271      C1272   1.377       .  A
C1271      C1274   1.449       .  S
C1272      C1275   1.413       .  S
C1273      N1280   1.156       .  T
C1274      N1279   1.158       .  T
C1275      N1277   1.147       .  T
C1276      N1278   1.158       .  T
C1281      C1282   1.481       .  A
C1281      C1286   1.441       .  A
C1282      C1283   1.429       .  A
C1282      C1287   1.449       .  S
C1283      C1284   1.390       .  A
C1283      C1290   1.446       .  S
C1284      C1285   1.437       .  A
C1285      C1286   1.427       .  A
C1285      C1288   1.451       .  S
C1286      C1289   1.445       .  S
C1287      N1294   1.159       .  T
C1288      N1293   1.157       .  T
C1289      N1291   1.158       .  T
C1290      N1292   1.157       .  T
C1295      C1296   1.437       .  A
C1295      C1300   1.419       .  A
C1296      C1297   1.416       .  A
C1296      C1301   1.456       .  S
C1297      C1298   1.411       .  A
C1297      C1304   1.451       .  S
C1298      C1299   1.403       .  A
C1299      C1300   1.385       .  A
C1299      C1302   1.452       .  S
C1300      C1303   1.447       .  S
C1301      N1308   1.157       .  T
C1302      N1307   1.157       .  T
C1303      N1305   1.155       .  T
C1304      N1306   1.157       .  T
C1309      C1310   1.443       .  A
C1309      C1314   1.423       .  A
C1310      C1311   1.420       .  A
C1310      C1315   1.455       .  S
C1311      C1312   1.427       .  A
C1311      C1318   1.453       .  S
C1312      C1313   1.440       .  A
C1313      C1314   1.428       .  A
C1313      C1316   1.443       .  S
C1314      C1317   1.454       .  S
C1315      N1322   1.157       .  T
C1316      N1321   1.157       .  T
C1317      N1319   1.155       .  T
C1318      N1320   1.156       .  T
C1323      C1324   1.428       .  A
C1323      C1328   1.451       .  A
C1324      C1325   1.390       .  A
C1324      C1329   1.435       .  S
C1325      C1326   1.416       .  A
C1325      C1332   1.441       .  S
C1326      C1327   1.453       .  A
C1327      C1328   1.448       .  A
C1327      C1330   1.430       .  S
C1328      C1331   1.462       .  S
C1329      N1336   1.155       .  T
C1330      N1335   1.153       .  T
C1331      N1333   1.158       .  T
C1332      N1334   1.157       .  T
C1337      C1338   1.435       .  A
C1337      C1342   1.445       .  A
C1338      C1339   1.407       .  A
C1338      C1343   1.452       .  S
C1339      C1340   1.426       .  A
C1339      C1346   1.461       .  S
C1340      C1341   1.412       .  A
C1341      C1342   1.429       .  A
C1341      C1344   1.454       .  S
C1342      C1345   1.444       .  S
C1343      N1350   1.154       .  T
C1344      N1349   1.157       .  T
C1345      N1347   1.157       .  T
C1346      N1348   1.159       .  T
C1351      C1352   1.435       .  A
C1351      C1356   1.428       .  A
C1352      C1353   1.440       .  A
C1352      C1357   1.451       .  S
C1353      C1354   1.448       .  A
C1353      C1360   1.444       .  S
C1354      C1355   1.435       .  A
C1355      C1356   1.428       .  A
C1355      C1358   1.448       .  S
C1356      C1359   1.445       .  S
C1357      N1364   1.157       .  T
C1358      N1363   1.158       .  T
C1359      N1361   1.157       .  T
C1360      N1362   1.154       .  T
C1365      C1366   1.449       .  A
C1365      C1370   1.460       .  A
C1366      C1367   1.437       .  A
C1366      C1371   1.439       .  S
C1367      C1368   1.439       .  A
C1367      C1374   1.463       .  S
C1368      C1369   1.399       .  A
C1369      C1370   1.425       .  A
C1369      C1372   1.448       .  S
C1370      C1373   1.446       .  S
C1371      N1378   1.158       .  T
C1372      N1377   1.156       .  T
C1373      N1375   1.158       .  T
C1374      N1376   1.159       .  T
C1379      C1380   1.443       .  A
C1379      C1384   1.468       .  A
C1380      C1381   1.425       .  A
C1380      C1385   1.438       .  S
C1381      C1382   1.429       .  A
C1381      C1388   1.458       .  S
C1382      C1383   1.415       .  A
C1383      C1384   1.437       .  A
C1383      C1386   1.449       .  S
C1384      C1387   1.458       .  S
C1385      N1392   1.158       .  T
C1386      N1391   1.157       .  T
C1387      N1389   1.158   1_556  T
C1388      N1390   1.158       .  T
C1393      C1394   1.432       .  A
C1393      C1398   1.444       .  A
C1394      C1395   1.390       .  A
C1394      C1399   1.444       .  S
C1395      C1396   1.412       .  A
C1395      C1402   1.463       .  S
C1396      C1397   1.409       .  A
C1397      C1398   1.428       .  A
C1397      C1400   1.451       .  S
C1398      C1401   1.447       .  S
C1399      N1406   1.151       .  T
C1400      N1405   1.158       .  T
C1401      N1403   1.157       .  T
C1402      N1404   1.157       .  T
C1407      C1408   1.441       .  A
C1407      C1412   1.435       .  A
C1408      C1409   1.422       .  A
C1408      C1413   1.449       .  S
C1409      C1410   1.422       .  A
C1409      C1416   1.451       .  S
C1410      C1411   1.434       .  A
C1411      C1412   1.433       .  A
C1411      C1414   1.455       .  S
C1412      C1415   1.448       .  S
C1413      N1420   1.158       .  T
C1414      N1419   1.158       .  T
C1415      N1417   1.157       .  T
C1416      N1418   1.157       .  T
C1421      C1422   1.407       .  A
C1421      C1426   1.432       .  A
C1422      C1423   1.421       .  A
C1422      C1427   1.457       .  S
C1423      C1424   1.434       .  A
C1423      C1430   1.435       .  S
C1424      C1425   1.431       .  A
C1425      C1426   1.415       .  A
C1425      C1428   1.452       .  S
C1426      C1429   1.449   1_556  S
C1427      N1434   1.157       .  T
C1428      N1433   1.158       .  T
C1429      N1431   1.154       .  T
C1430      N1432   1.155       .  T
C1435      C1436   1.438       .  A
C1435      C1440   1.451       .  A
C1436      C1437   1.431       .  A
C1436      C1441   1.456       .  S
C1437      C1438   1.436       .  A
C1437      C1444   1.448       .  S
C1438      C1439   1.423       .  A
C1439      C1440   1.432       .  A
C1439      C1442   1.445       .  S
C1440      C1443   1.445       .  S
C1441      N1448   1.158       .  T
C1442      N1447   1.157       .  T
C1443      N1445   1.158       .  T
C1444      N1446   1.156   1_556  T
C1449      C1450   1.444       .  A
C1449      C1454   1.434       .  A
C1450      C1451   1.384       .  A
C1450      C1455   1.451       .  S
C1451      C1452   1.393       .  A
C1451      C1458   1.457       .  S
C1452      C1453   1.406       .  A
C1453      C1454   1.423       .  A
C1453      C1456   1.450       .  S
C1454      C1457   1.448       .  S
C1455      N1462   1.158       .  T
C1456      N1461   1.157       .  T
C1457      N1459   1.157       .  T
C1458      N1460   1.155       .  T
C1463      C1464   1.419       .  A
C1463      C1468   1.403       .  A
C1464      C1465   1.460       .  A
C1464      C1469   1.446       .  S
C1465      C1466   1.471       .  A
C1465      C1472   1.434       .  S
C1466      C1467   1.427       .  A
C1467      C1468   1.376       .  A
C1467      C1470   1.443   1_565  S
C1468      C1471   1.447       .  S
C1469      N1476   1.157       .  T
C1470      N1475   1.157       .  T
C1471      N1473   1.158       .  T
C1472      N1474   1.157       .  T
C1477      C1478   1.430       .  A
C1477      C1482   1.429       .  A
C1478      C1479   1.426       .  A
C1478      C1483   1.463       .  S
C1479      C1480   1.430       .  A
C1479      C1486   1.448   1_565  S
C1480      C1481   1.438       .  A
C1481      C1482   1.429       .  A
C1481      C1484   1.453       .  S
C1482      C1485   1.451       .  S
C1483      N1490   1.157       .  T
C1484      N1489   1.157       .  T
C1485      N1487   1.157       .  T
C1486      N1488   1.157       .  T
C1491      C1492   1.439       .  A
C1491      C1496   1.436       .  A
C1492      C1493   1.428       .  A
C1492      C1497   1.450       .  S
C1493      C1494   1.413       .  A
C1493      C1500   1.451       .  S
C1494      C1495   1.412       .  A
C1495      C1496   1.408       .  A
C1495      C1498   1.454       .  S
C1496      C1499   1.450       .  S
C1497      N1504   1.157       .  T
C1498      N1503   1.157       .  T
C1499      N1501   1.158       .  T
C1500      N1502   1.157       .  T
C1505      C1506   1.430       .  A
C1505      C1510   1.440       .  A
C1506      C1507   1.422       .  A
C1506      C1511   1.448       .  S
C1507      C1508   1.421       .  A
C1507      C1514   1.438       .  S
C1508      C1509   1.432       .  A
C1509      C1510   1.412       .  A
C1509      C1512   1.451       .  S
C1510      C1513   1.451       .  S
C1511      N1518   1.156       .  T
C1512      N1517   1.158       .  T
C1513      N1515   1.158       .  T
C1514      N1516   1.153       .  T
C1519      C1520   1.414       .  A
C1519      C1524   1.438       .  A
C1520      C1521   1.416       .  A
C1520      C1525   1.444       .  S
C1521      C1522   1.437       .  A
C1521      C1528   1.442       .  S
C1522      C1523   1.454       .  A
C1523      C1524   1.442       .  A
C1523      C1526   1.466       .  S
C1524      C1527   1.442       .  S
C1525      N1532   1.157       .  T
C1526      N1531   1.157       .  T
C1527      N1529   1.156       .  T
C1528      N1530   1.157       .  T
C1533      C1534   1.441       .  A
C1533      C1538   1.434       .  A
C1534      C1535   1.429       .  A
C1534      C1539   1.451       .  S
C1535      C1536   1.428       .  A
C1535      C1542   1.453       .  S
C1536      C1537   1.447       .  A
C1537      C1538   1.433       .  A
C1537      C1540   1.454       .  S
C1538      C1541   1.458       .  S
C1539      N1546   1.158       .  T
C1540      N1545   1.159       .  T
C1541      N1543   1.158       .  T
C1542      N1544   1.156   1_565  T
C1547      C1548   1.433       .  A
C1547      C1552   1.431       .  A
C1548      C1549   1.425       .  A
C1548      C1553   1.449       .  S
C1549      C1550   1.412       .  A
C1549      C1556   1.449       .  S
C1550      C1551   1.404       .  A
C1551      C1552   1.391       .  A
C1551      C1554   1.453       .  S
C1552      C1555   1.452       .  S
C1553      N1560   1.157       .  T
C1554      N1559   1.157       .  T
C1555      N1557   1.157       .  T
C1556      N1558   1.157       .  T
C1561      C1562   1.434       .  A
C1561      C1566   1.463       .  A
C1562      C1563   1.425       .  A
C1562      C1567   1.443       .  S
C1563      C1564   1.446       .  A
C1563      C1570   1.435       .  S
C1564      C1565   1.443       .  A
C1565      C1566   1.435       .  A
C1565      C1568   1.458       .  S
C1566      C1569   1.446       .  S
C1567      N1574   1.159       .  T
C1568      N1573   1.158       .  T
C1569      N1571   1.158       .  T
C1570      N1572   1.159       .  T
C1575      C1576   1.422       .  A
C1575      C1580   1.441       .  A
C1576      C1577   1.408       .  A
C1576      C1581   1.449       .  S
C1577      C1578   1.440       .  A
C1577      C1584   1.452       .  S
C1578      C1579   1.433       .  A
C1579      C1580   1.431       .  A
C1579      C1582   1.436       .  S
C1580      C1583   1.451       .  S
C1581      N1588   1.157       .  T
C1582      N1587   1.155       .  T
C1583      N1585   1.158       .  T
C1584      N1586   1.158       .  T
C1589      C1590   1.444       .  A
C1589      C1594   1.446       .  A
C1590      C1591   1.440       .  A
C1590      C1595   1.458       .  S
C1591      C1592   1.429       .  A
C1591      C1598   1.442       .  S
C1592      C1593   1.413       .  A
C1593      C1594   1.410       .  A
C1593      C1596   1.447   1_565  S
C1594      C1597   1.439       .  S
C1595      N1602   1.158       .  T
C1596      N1601   1.156       .  T
C1597      N1599   1.154   1_565  T
C1598      N1600   1.156       .  T
C1603      C1604   1.441       .  A
C1603      C1608   1.447       .  A
C1604      C1605   1.402       .  A
C1604      C1609   1.443       .  S
C1605      C1606   1.406       .  A
C1605      C1612   1.460       .  S
C1606      C1607   1.407       .  A
C1607      C1608   1.423       .  A
C1607      C1610   1.456       .  S
C1608      C1611   1.444       .  S
C1609      N1616   1.153       .  T
C1610      N1615   1.157       .  T
C1611      N1613   1.158       .  T
C1612      N1614   1.158       .  T
C1617      C1618   1.442       .  A
C1617      C1622   1.425       .  A
C1618      C1619   1.442       .  A
C1618      C1623   1.458       .  S
C1619      C1620   1.454       .  A
C1619      C1626   1.456       .  S
C1620      C1621   1.445       .  A
C1621      C1622   1.435       .  A
C1621      C1624   1.443       .  S
C1622      C1625   1.459       .  S
C1623      N1630   1.158       .  T
C1624      N1629   1.158       .  T
C1625      N1627   1.158       .  T
C1626      N1628   1.159       .  T
C1631      C1632   1.440       .  A
C1631      C1636   1.439       .  A
C1632      C1633   1.455       .  A
C1632      C1637   1.443       .  S
C1633      C1634   1.442       .  A
C1633      C1640   1.444       .  S
C1634      C1635   1.421       .  A
C1635      C1636   1.423       .  A
C1635      C1638   1.449       .  S
C1636      C1639   1.446       .  S
C1637      N1644   1.156       .  T
C1638      N1643   1.158       .  T
C1639      N1641   1.156       .  T
C1640      N1642   1.157       .  T
C1645      C1646   1.442       .  A
C1645      C1650   1.447       .  A
C1646      C1647   1.434       .  A
C1646      C1651   1.450       .  S
C1647      C1648   1.425       .  A
C1647      C1654   1.451       .  S
C1648      C1649   1.412       .  A
C1649      C1650   1.428       .  A
C1649      C1652   1.443       .  S
C1650      C1653   1.443       .  S
C1651      N1658   1.157       .  T
C1652      N1657   1.155       .  T
C1653      N1655   1.158       .  T
C1654      N1656   1.157       .  T
C1659      C1660   1.449       .  A
C1659      C1664   1.458       .  A
C1660      C1661   1.429       .  A
C1660      C1665   1.443       .  S
C1661      C1662   1.397       .  A
C1661      C1668   1.451       .  S
C1662      C1663   1.378       .  A
C1663      C1664   1.410       .  A
C1663      C1666   1.453       .  S
C1664      C1667   1.438       .  S
C1665      N1672   1.157       .  T
C1666      N1671   1.158       .  T
C1667      N1669   1.154       .  T
C1668      N1670   1.157       .  T
C1673      C1674   1.436       .  A
C1673      C1678   1.433       .  A
C1674      C1675   1.421       .  A
C1674      C1679   1.446       .  S
C1675      C1676   1.422       .  A
C1675      C1682   1.448       .  S
C1676      C1677   1.445       .  A
C1677      C1678   1.424       .  A
C1677      C1680   1.445       .  S
C1678      C1681   1.467       .  S
C1679      N1686   1.157       .  T
C1680      N1685   1.156       .  T
C1681      N1683   1.158       .  T
C1682      N1684   1.158       .  T
C1687      C1688   1.405       .  A
C1687      C1692   1.435       .  A
C1688      C1689   1.415       .  A
C1688      C1693   1.456       .  S
C1689      C1690   1.448       .  A
C1689      C1696   1.444       .  S
C1690      C1691   1.456       .  A
C1691      C1692   1.442       .  A
C1691      C1694   1.447       .  S
C1692      C1695   1.453       .  S
C1693      N1700   1.156       .  T
C1694      N1699   1.156       .  T
C1695      N1697   1.157       .  T
C1696      N1698   1.158       .  T
C1701      C1702   1.437       .  A
C1701      C1706   1.421       .  A
C1702      C1703   1.413       .  A
C1702      C1707   1.447       .  S
C1703      C1704   1.431       .  A
C1703      C1710   1.452       .  S
C1704      C1705   1.452       .  A
C1705      C1706   1.432       .  A
C1705      C1708   1.450       .  S
C1706      C1709   1.454       .  S
C1707      N1714   1.156       .  T
C1708      N1713   1.158       .  T
C1709      N1711   1.158       .  T
C1710      N1712   1.156       .  T
C1715      C1716   1.439       .  A
C1715      C1720   1.434       .  A
C1716      C1717   1.422       .  A
C1716      C1721   1.448       .  S
C1717      C1718   1.408       .  A
C1717      C1724   1.451       .  S
C1718      C1719   1.402       .  A
C1719      C1720   1.385       .  A
C1719      C1722   1.456       .  S
C1720      C1723   1.452       .  S
C1721      N1728   1.157       .  T
C1722      N1727   1.157       .  T
C1723      N1725   1.155       .  T
C1724      N1726   1.157       .  T
C1729      C1730   1.440       .  A
C1729      C1734   1.429       .  A
C1730      C1731   1.431       .  A
C1730      C1735   1.457       .  S
C1731      C1732   1.442       .  A
C1731      C1738   1.451       .  S
C1732      C1733   1.436       .  A
C1733      C1734   1.429       .  A
C1733      C1736   1.445       .  S
C1734      C1737   1.448       .  S
C1735      N1742   1.158       .  T
C1736      N1741   1.159       .  T
C1737      N1739   1.157       .  T
C1738      N1740   1.158       .  T
C1743      C1744   1.436       .  A
C1743      C1748   1.428       .  A
C1744      C1745   1.427       .  A
C1744      C1749   1.445       .  S
C1745      C1746   1.426       .  A
C1745      C1752   1.442       .  S
C1746      C1747   1.447       .  A
C1747      C1748   1.436       .  A
C1747      C1750   1.449       .  S
C1748      C1751   1.442       .  S
C1749      N1756   1.156       .  T
C1750      N1755   1.158       .  T
C1751      N1753   1.157       .  T
C1752      N1754   1.155       .  T
C1757      C1758   1.434       .  A
C1757      C1762   1.435       .  A
C1758      C1759   1.397       .  A
C1758      C1763   1.461       .  S
C1759      C1760   1.430       .  A
C1759      C1766   1.430       .  S
C1760      C1761   1.458       .  A
C1761      C1762   1.435       .  A
C1761      C1764   1.461       .  S
C1762      C1765   1.441       .  S
C1763      N1770   1.158       .  T
C1764      N1769   1.158       .  T
C1765      N1767   1.155       .  T
C1766      N1768   1.151   1_655  T
C1771      C1772   1.446       .  A
C1771      C1776   1.441       .  A
C1772      C1773   1.433       .  A
C1772      C1777   1.445       .  S
C1773      C1774   1.405       .  A
C1773      C1780   1.451       .  S
C1774      C1775   1.400       .  A
C1775      C1776   1.398       .  A
C1775      C1778   1.454       .  S
C1776      C1779   1.447       .  S
C1777      N1784   1.157       .  T
C1778      N1783   1.157       .  T
C1779      N1781   1.155       .  T
C1780      N1782   1.157       .  T
C1785      C1786   1.449       .  A
C1785      C1790   1.431       .  A
C1786      C1787   1.416       .  A
C1786      C1791   1.451       .  S
C1787      C1788   1.418       .  A
C1787      C1794   1.450       .  S
C1788      C1789   1.446       .  A
C1789      C1790   1.433       .  A
C1789      C1792   1.448       .  S
C1790      C1793   1.460       .  S
C1791      N1798   1.158       .  T
C1792      N1797   1.159       .  T
C1793      N1795   1.157       .  T
C1794      N1796   1.155       .  T
C1799      C1800   1.443       .  A
C1799      C1804   1.433       .  A
C1800      C1801   1.415       .  A
C1800      C1805   1.458       .  S
C1801      C1802   1.431       .  A
C1801      C1808   1.444       .  S
C1802      C1803   1.438       .  A
C1803      C1804   1.439       .  A
C1803      C1806   1.442       .  S
C1804      C1807   1.441       .  S
C1805      N1812   1.158       .  T
C1806      N1811   1.157       .  T
C1807      N1809   1.158       .  T
C1808      N1810   1.157       .  T
C1813      C1814   1.399       .  A
C1813      C1818   1.439       .  A
C1814      C1815   1.381       .  A
C1814      C1819   1.451       .  S
C1815      C1816   1.420       .  A
C1815      C1822   1.405       .  S
C1816      C1817   1.443       .  A
C1817      C1818   1.451       .  A
C1817      C1820   1.443       .  S
C1818      C1821   1.444       .  S
C1819      N1826   1.155       .  T
C1820      N1825   1.155       .  T
C1821      N1823   1.158       .  T
C1822      N1824   1.142   1_655  T
C1827      C1828   1.431       .  A
C1827      C1832   1.432       .  A
C1828      C1829   1.393       .  A
C1828      C1833   1.449       .  S
C1829      C1830   1.400       .  A
C1829      C1836   1.450       .  S
C1830      C1831   1.405       .  A
C1831      C1832   1.421       .  A
C1831      C1834   1.450       .  S
C1832      C1835   1.443       .  S
C1833      N1840   1.156       .  T
C1834      N1839   1.157       .  T
C1835      N1837   1.156       .  T
C1836      N1838   1.156       .  T
C1841      C1842   1.442       .  A
C1841      C1846   1.443       .  A
C1842      C1843   1.458       .  A
C1842      C1847   1.441       .  S
C1843      C1844   1.448       .  A
C1843      C1850   1.452       .  S
C1844      C1845   1.462       .  A
C1845      C1846   1.445       .  A
C1845      C1848   1.452       .  S
C1846      C1849   1.460       .  S
C1847      N1854   1.155       .  T
C1848      N1853   1.159       .  T
C1849      N1851   1.158       .  T
C1850      N1852   1.156       .  T
C1855      C1856   1.431       .  A
C1855      C1860   1.455       .  A
C1856      C1857   1.437       .  A
C1856      C1861   1.447       .  S
C1857      C1858   1.450       .  A
C1857      C1864   1.454       .  S
C1858      C1859   1.415       .  A
C1859      C1860   1.434       .  A
C1859      C1862   1.454       .  S
C1860      C1863   1.447       .  S
C1861      N1868   1.157       .  T
C1862      N1867   1.156   1_655  T
C1863      N1865   1.158       .  T
C1864      N1866   1.158       .  T
C1869      C1870   1.431       .  A
C1869      C1874   1.418       .  A
C1870      C1871   1.424       .  A
C1870      C1875   1.441       .  S
C1871      C1872   1.429       .  A
C1871      C1878   1.448       .  S
C1872      C1873   1.429       .  A
C1873      C1874   1.418       .  A
C1873      C1876   1.448       .  S
C1874      C1877   1.423       .  S
C1875      N1882   1.154       .  T
C1876      N1881   1.157       .  T
C1877      N1879   1.150       .  T
C1878      N1880   1.156   1_655  T
C1883      C1884   1.404       .  A
C1883      C1888   1.396       .  A
C1884      C1885   1.424       .  A
C1884      C1889   1.450       .  S
C1885      C1886   1.442       .  A
C1885      C1892   1.447       .  S
C1886      C1887   1.448       .  A
C1887      C1888   1.395       .  A
C1887      C1890   1.452       .  S
C1888      C1891   1.459       .  S
C1889      N1896   1.157       .  T
C1890      N1895   1.159       .  T
C1891      N1893   1.156       .  T
C1892      N1894   1.156       .  T
