geometry optimzed in LAMMPS
_audit_creation_date              2020-12-01 
_audit_creation_method            'lammps2cif' 
_symmetry_space_group_name_H-M    'P1' 
_symmetry_Int_Tables_number       1 
_symmetry_cell_setting            triclinic 
loop_ 
_symmetry_equiv_pos_as_xyz 
  x,y,z 
_cell_length_a                    29.28330194 
_cell_length_b                    29.293029218737516 
_cell_length_c                    34.657338656086694 
_cell_angle_alpha                 89.9959616419913 
_cell_angle_beta                  90.00203594182875 
_cell_angle_gamma                 120.05424478802095 
loop_ 
_atom_site_label 
_atom_site_type_symbol 
_atom_site_fract_x 
_atom_site_fract_y 
_atom_site_fract_z 
_atom_site_charge 
Fe1        Fe  0.20593864  0.41159915  0.24991644     1.65800
Fe2        Fe  0.20590682  0.29430945  0.24991426     1.73200
Fe3        Fe  0.08854266  0.29420749  0.24993218     1.54400
O4          O  0.08311635  0.34171549  0.29162358    -0.78500
O5          O  0.16040230  0.24360041  0.20653486    -0.76900
O6          O  0.16046917  0.41678000  0.29331167    -0.81100
O7          O  0.15839367  0.41700466  0.20823631    -0.75900
O8          O  0.08332798  0.24353375  0.29332667    -0.77700
O9          O  0.25887754  0.34184647  0.20821399    -0.80400
C10         C  0.11264406  0.38656185  0.19493438     1.00300
C11         C  0.11355915  0.38745415  0.30492430     1.07800
O12         O  0.16679520  0.33337235  0.24992118    -1.09400
O13         O  0.25663164  0.33980751  0.29329199    -0.71800
O14         O  0.25893513  0.41709196  0.29159990    -0.75300
O15         O  0.08332385  0.33966017  0.20654227    -0.76000
C16         C  0.27423805  0.38669330  0.30490312     0.99200
O17         O  0.25662577  0.41685167  0.20651642    -0.74000
O18         O  0.15838240  0.24133015  0.29161379    -0.79200
C19         C  0.11349511  0.22597776  0.19492702     1.01900
C20         C  0.11264663  0.22598715  0.30493218     1.07800
O21         O  0.08306914  0.24124837  0.20823787    -0.74800
C22         C  0.27419652  0.38756530  0.19490193     1.06100
C23         C  0.00023562  0.00001322  0.09724874     0.00600
C24         C  0.00026580  0.00000872  0.40260344     0.00600
Fe25       Fe  0.29454430  0.08810412  0.74991270     1.65800
Fe26       Fe  0.29457751  0.20539557  0.74994184     1.73200
Fe27       Fe  0.41194212  0.20549618  0.74994759     1.54400
O28         O  0.41736325  0.15798239  0.79164086    -0.78500
O29         O  0.34010389  0.25615262  0.70658694    -0.76900
O30         O  0.34002855  0.08289550  0.79328709    -0.81100
O31         O  0.34207388  0.08272340  0.70821091    -0.75700
O32         O  0.41715665  0.25616351  0.79334130    -0.77700
O33         O  0.24162721  0.15790051  0.70821883    -0.80400
C34         C  0.38783608  0.11316381  0.69492773     1.00300
C35         C  0.38692774  0.11222615  0.80491852     1.07800
O36         O  0.33368879  0.16633163  0.74993376    -1.09400
O37         O  0.24383052  0.15985525  0.79329767    -0.71800
O38         O  0.24156687  0.08258992  0.79161637    -0.75300
O39         O  0.41716668  0.16004992  0.70655956    -0.76000
C40         C  0.22624505  0.11297335  0.80491453     0.99200
O41         O  0.24383729  0.08287337  0.70653210    -0.74000
O42         O  0.34208063  0.25832822  0.79166683    -0.79200
C43         C  0.38700253  0.27376183  0.69496400     1.01900
C44         C  0.38782586  0.27368180  0.80497028     1.07800
O45         O  0.41741803  0.25846212  0.70825231    -0.74800
C46         C  0.22628727  0.11217706  0.69491204     1.06100
C47         C  0.50021611  0.49965435  0.90260751     0.00600
C48         C  0.00024990  0.49973106  0.59725082     0.00600
C49         C  0.47313941  0.44522949  0.88824154    -0.15400
C50         C  0.45164576  0.40189884  0.87384885     0.08700
C51         C  0.42766954  0.35353456  0.85366139     0.10500
C52         C  0.40850830  0.31501409  0.83326315    -0.16200
C53         C  0.18487767  0.09229315  0.83319051    -0.15400
C54         C  0.14634170  0.07300235  0.85358657     0.08700
C55         C  0.09796999  0.04874378  0.87378547     0.10500
C56         C  0.05463761  0.02699414  0.88819933    -0.16200
C57         C  0.40757254  0.09151962  0.83318097    -0.15400
C58         C  0.42685828  0.07228283  0.85355675     0.08700
C59         C  0.45112881  0.04820884  0.87373706     0.10500
C60         C  0.47288660  0.02667579  0.88815479    -0.16200
C61         C  0.47288822  0.44532351  0.61166107    -0.15400
C62         C  0.45114891  0.40200814  0.62608515     0.08700
C63         C  0.42692140  0.35365394  0.64629382     0.10500
C64         C  0.40766051  0.31512787  0.66669161    -0.16200
C65         C  0.18493483  0.09148505  0.66662451    -0.15400
C66         C  0.14640060  0.07230166  0.64622689     0.08700
C67         C  0.09802366  0.04829794  0.62603535     0.10500
C68         C  0.05468332  0.02679261  0.61163491    -0.16200
C69         C  0.47323145  0.02706927  0.61168825    -0.15400
C70         C  0.45174192  0.04887159  0.62610075     0.08700
C71         C  0.42773652  0.07320813  0.64628049     0.10500
C72         C  0.40854283  0.09253138  0.66665886    -0.16200
C73         C  0.00026225  0.99995614  0.44483189    -0.15400
C74         C  0.00024529  0.99988740  0.47959790     0.08700
C75         C  0.00022411  0.49980104  0.52025632     0.10500
C76         C  0.00022096  0.49974789  0.55502235    -0.16200
C77         C  0.50022127  0.49972353  0.94483448    -0.15400
C78         C  0.00023860  0.49980752  0.97959962     0.08700
C79         C  0.00025993  0.99991211  0.02025660     0.10500
C80         C  0.00026329  0.99998017  0.05502176    -0.16200
C81         C  0.09291124  0.40814809  0.33319116    -0.15400
C82         C  0.07362483  0.42737912  0.35356918     0.08700
C83         C  0.04935471  0.45145063  0.37374982     0.10500
C84         C  0.02759706  0.47298422  0.38816379    -0.16200
C85         C  0.31560718  0.40736022  0.33317851    -0.15400
C86         C  0.35414289  0.42664666  0.35357543     0.08700
C87         C  0.40251278  0.45090645  0.37377779     0.10500
C88         C  0.44584366  0.47266059  0.38819491    -0.16200
C89         C  0.09196225  0.18463880  0.33321733    -0.15400
C90         C  0.07280265  0.14611464  0.35361601     0.08700
C91         C  0.04882989  0.09775351  0.37381336     0.10500
C92         C  0.02733951  0.05442835  0.38821976    -0.16200
C93         C  0.02725118  0.47267713  0.11169927    -0.15400
C94         C  0.04874039  0.45087505  0.12611571     0.08700
C95         C  0.07274614  0.42653598  0.14629501     0.10500
C96         C  0.09193939  0.40720695  0.16667085    -0.16200
C97         C  0.31554825  0.40827166  0.16661471    -0.15400
C98         C  0.35408291  0.42745936  0.14621814     0.08700
C99         C  0.40246137  0.45146104  0.12602986     0.10500
C100        C  0.44580293  0.47296090  0.11163237    -0.16200
C101        C  0.02760124  0.05442577  0.11164156    -0.15400
C102        C  0.04934456  0.09774647  0.12605209     0.08700
C103        C  0.07357625  0.14610373  0.14625093     0.10500
C104        C  0.09283893  0.18462645  0.16664791    -0.16200
Fe105      Fe  0.20593867  0.91159904  0.24991644     1.65800
Fe106      Fe  0.20590689  0.79430940  0.24991426     1.73200
Fe107      Fe  0.08854260  0.79420756  0.24993218     1.54400
O108        O  0.08311640  0.84171552  0.29162365    -0.78500
O109        O  0.16040240  0.74360044  0.20653484    -0.76900
O110        O  0.16046923  0.91678001  0.29331167    -0.81100
O111        O  0.15839377  0.91700464  0.20823632    -0.75900
O112        O  0.08332787  0.74353368  0.29332664    -0.77700
O113        O  0.25887766  0.84184648  0.20821403    -0.80400
C114        C  0.11264412  0.88656195  0.19493441     1.00300
C115        C  0.11355924  0.88745416  0.30492438     1.07800
O116        O  0.16679518  0.83337225  0.24992120    -1.09400
O117        O  0.25663170  0.83980752  0.29329201    -0.71800
O118        O  0.25893527  0.91709201  0.29159987    -0.75300
O119        O  0.08332384  0.83966030  0.20654228    -0.76000
C120        C  0.27423817  0.88669335  0.30490309     0.99200
O121        O  0.25662580  0.91685162  0.20651640    -0.74000
O122        O  0.15838243  0.74133026  0.29161382    -0.79200
C123        C  0.11349520  0.72597779  0.19492705     1.01900
C124        C  0.11264665  0.72598723  0.30493220     1.07800
O125        O  0.08306924  0.74124849  0.20823785    -0.74800
C126        C  0.27419662  0.88756529  0.19490194     1.06100
C127        C  0.00023557  0.50001323  0.09724873     0.00600
C128        C  0.00026582  0.50000870  0.40260343     0.00600
Fe129      Fe  0.29454437  0.58810421  0.74991269     1.65800
Fe130      Fe  0.29457757  0.70539552  0.74994183     1.73200
Fe131      Fe  0.41194224  0.70549626  0.74994758     1.54400
O132        O  0.41736325  0.65798243  0.79164090    -0.78500
O133        O  0.34010395  0.75615273  0.70658700    -0.76900
O134        O  0.34002849  0.58289558  0.79328709    -0.81100
O135        O  0.34207393  0.58272336  0.70821091    -0.75700
O136        O  0.41715669  0.75616360  0.79334126    -0.77700
O137        O  0.24162722  0.65790057  0.70821876    -0.80400
C138        C  0.38783614  0.61316376  0.69492774     1.00300
C139        C  0.38692766  0.61222620  0.80491857     1.07800
O140        O  0.33368893  0.66633168  0.74993374    -1.09400
O141        O  0.24383056  0.65985522  0.79329763    -0.71800
O142        O  0.24156697  0.58258995  0.79161641    -0.75300
O143        O  0.41716677  0.66004988  0.70655958    -0.76000
C144        C  0.22624508  0.61297335  0.80491452     0.99200
O145        O  0.24383724  0.58287342  0.70653214    -0.74000
O146        O  0.34208063  0.75832823  0.79166682    -0.79200
C147        C  0.38700256  0.77376188  0.69496400     1.01900
C148        C  0.38782585  0.77368178  0.80497029     1.07800
O149        O  0.41741802  0.75846207  0.70825226    -0.74800
C150        C  0.22628718  0.61217706  0.69491205     1.06100
C151        C  0.50021608  0.99965438  0.90260752     0.00600
C152        C  0.00024993  0.99973106  0.59725084     0.00600
C153        C  0.47313941  0.94522948  0.88824156    -0.15400
C154        C  0.45164579  0.90189885  0.87384884     0.08700
C155        C  0.42766940  0.85353450  0.85366141     0.10500
C156        C  0.40850825  0.81501402  0.83326322    -0.16200
C157        C  0.18487765  0.59229323  0.83319049    -0.15400
C158        C  0.14634172  0.57300243  0.85358661     0.08700
C159        C  0.09796996  0.54874372  0.87378549     0.10500
C160        C  0.05463753  0.52699420  0.88819928    -0.16200
C161        C  0.40757240  0.59151957  0.83318101    -0.15400
C162        C  0.42685839  0.57228296  0.85355675     0.08700
C163        C  0.45112897  0.54820898  0.87373705     0.10500
C164        C  0.47288659  0.52667576  0.88815481    -0.16200
C165        C  0.47288833  0.94532353  0.61166110    -0.15400
C166        C  0.45114901  0.90200812  0.62608515     0.08700
C167        C  0.42692152  0.85365397  0.64629382     0.10500
C168        C  0.40766056  0.81512785  0.66669160    -0.16200
C169        C  0.18493469  0.59148496  0.66662453    -0.15400
C170        C  0.14640042  0.57230152  0.64622694     0.08700
C171        C  0.09802351  0.54829780  0.62603539     0.10500
C172        C  0.05468322  0.52679246  0.61163489    -0.16200
C173        C  0.47323158  0.52706936  0.61168822    -0.15400
C174        C  0.45174195  0.54887152  0.62610076     0.08700
C175        C  0.42773649  0.57320797  0.64628052     0.10500
C176        C  0.40854286  0.59253127  0.66665888    -0.16200
C177        C  0.00026222  0.49995619  0.44483189    -0.15400
C178        C  0.00024519  0.49988726  0.47959790     0.08700
C179        C  0.00022406  0.99980117  0.52025633     0.10500
C180        C  0.00022094  0.99974783  0.55502237    -0.16200
C181        C  0.50022123  0.99972369  0.94483448    -0.15400
C182        C  0.00023873  0.99980774  0.97959962     0.08700
C183        C  0.00025972  0.49991189  0.02025660     0.10500
C184        C  0.00026314  0.49998002  0.05502176    -0.16200
C185        C  0.09291131  0.90814807  0.33319127    -0.15400
C186        C  0.07362474  0.92737903  0.35356920     0.08700
C187        C  0.04935479  0.95145076  0.37374981     0.10500
C188        C  0.02759713  0.97298435  0.38816376    -0.16200
C189        C  0.31560730  0.90736027  0.33317848    -0.15400
C190        C  0.35414295  0.92664661  0.35357543     0.08700
C191        C  0.40251282  0.95090655  0.37377778     0.10500
C192        C  0.44584365  0.97266070  0.38819493    -0.16200
C193        C  0.09196238  0.68463888  0.33321735    -0.15400
C194        C  0.07280275  0.64611464  0.35361595     0.08700
C195        C  0.04882998  0.59775350  0.37381332     0.10500
C196        C  0.02733959  0.55442834  0.38821974    -0.16200
C197        C  0.02725113  0.97267699  0.11169925    -0.15400
C198        C  0.04874034  0.95087489  0.12611567     0.08700
C199        C  0.07274616  0.92653591  0.14629497     0.10500
C200        C  0.09193953  0.90720708  0.16667086    -0.16200
C201        C  0.31554832  0.90827159  0.16661469    -0.15400
C202        C  0.35408299  0.92745927  0.14621812     0.08700
C203        C  0.40246149  0.95146116  0.12602988     0.10500
C204        C  0.44580304  0.97296106  0.11163238    -0.16200
C205        C  0.02760112  0.55442584  0.11164151    -0.15400
C206        C  0.04934463  0.59774656  0.12605204     0.08700
C207        C  0.07357640  0.64610381  0.14625091     0.10500
C208        C  0.09283901  0.68462644  0.16664797    -0.16200
Fe209      Fe  0.70593861  0.41159915  0.24991643     1.65800
Fe210      Fe  0.70590681  0.29430945  0.24991426     1.73200
Fe211      Fe  0.58854263  0.29420749  0.24993219     1.54400
O212        O  0.58311632  0.34171551  0.29162360    -0.78500
O213        O  0.66040227  0.24360040  0.20653486    -0.76900
O214        O  0.66046916  0.41678001  0.29331166    -0.81100
O215        O  0.65839364  0.41700466  0.20823631    -0.75900
O216        O  0.58332806  0.24353373  0.29332668    -0.77700
O217        O  0.75887751  0.34184646  0.20821398    -0.80400
C218        C  0.61264403  0.38656185  0.19493438     1.00300
C219        C  0.61355918  0.38745414  0.30492436     1.07800
O220        O  0.66679517  0.33337235  0.24992118    -1.09400
O221        O  0.75663162  0.33980752  0.29329199    -0.71800
O222        O  0.75893510  0.41709196  0.29159991    -0.75300
O223        O  0.58332381  0.33966017  0.20654227    -0.76000
C224        C  0.77423803  0.38669331  0.30490312     0.99200
O225        O  0.75662578  0.41685167  0.20651640    -0.74000
O226        O  0.65838250  0.24133016  0.29161378    -0.79200
C227        C  0.61349508  0.22597776  0.19492702     1.01900
C228        C  0.61264674  0.22598714  0.30493218     1.07800
O229        O  0.58306911  0.24124837  0.20823787    -0.74800
C230        C  0.77419654  0.38756531  0.19490193     1.06100
C231        C  0.50023561  0.00001323  0.09724873     0.00600
C232        C  0.50026578  0.00000872  0.40260344     0.00600
Fe233      Fe  0.79454427  0.08810412  0.74991270     1.65800
Fe234      Fe  0.79457750  0.20539557  0.74994184     1.73200
Fe235      Fe  0.91194210  0.20549617  0.74994759     1.54400
O236        O  0.91736321  0.15798238  0.79164087    -0.78500
O237        O  0.84010399  0.25615265  0.70658693    -0.76900
O238        O  0.84002852  0.08289550  0.79328709    -0.81100
O239        O  0.84207384  0.08272340  0.70821090    -0.75700
O240        O  0.91715662  0.25616352  0.79334129    -0.77700
O241        O  0.74162718  0.15790052  0.70821883    -0.80400
C242        C  0.88783604  0.11316381  0.69492773     1.00300
C243        C  0.88692771  0.11222614  0.80491853     1.07800
O244        O  0.83368876  0.16633163  0.74993375    -1.09400
O245        O  0.74383053  0.15985524  0.79329768    -0.71800
O246        O  0.74156688  0.08258991  0.79161638    -0.75300
O247        O  0.91716665  0.16004991  0.70655957    -0.76000
C248        C  0.72624510  0.11297336  0.80491455     0.99200
O249        O  0.74383726  0.08287337  0.70653210    -0.74000
O250        O  0.84208060  0.25832822  0.79166683    -0.79200
C251        C  0.88700264  0.27376184  0.69496400     1.01900
C252        C  0.88782583  0.27368180  0.80497028     1.07800
O253        O  0.91741811  0.25846210  0.70825232    -0.74800
C254        C  0.72628724  0.11217706  0.69491204     1.06100
C255        C  0.00021605  0.49965435  0.90260751     0.00600
C256        C  0.50024994  0.49973105  0.59725081     0.00600
C257        C  0.97313935  0.44522949  0.88824154    -0.15400
C258        C  0.95164572  0.40189884  0.87384885     0.08700
C259        C  0.92766951  0.35353456  0.85366139     0.10500
C260        C  0.90850827  0.31501409  0.83326315    -0.16200
C261        C  0.68487769  0.09229315  0.83319052    -0.15400
C262        C  0.64634168  0.07300236  0.85358656     0.08700
C263        C  0.59796996  0.04874378  0.87378547     0.10500
C264        C  0.55463757  0.02699417  0.88819932    -0.16200
C265        C  0.90757251  0.09151960  0.83318098    -0.15400
C266        C  0.92685827  0.07228280  0.85355677     0.08700
C267        C  0.95112885  0.04820884  0.87373705     0.10500
C268        C  0.97288672  0.02667584  0.88815477    -0.16200
C269        C  0.97288818  0.44532351  0.61166107    -0.15400
C270        C  0.95114887  0.40200813  0.62608515     0.08700
C271        C  0.92692143  0.35365394  0.64629382     0.10500
C272        C  0.90766066  0.31512786  0.66669161    -0.16200
C273        C  0.68493480  0.09148505  0.66662451    -0.15400
C274        C  0.64640057  0.07230166  0.64622690     0.08700
C275        C  0.59802363  0.04829794  0.62603535     0.10500
C276        C  0.55468331  0.02679262  0.61163490    -0.16200
C277        C  0.97323144  0.02706927  0.61168825    -0.15400
C278        C  0.95174190  0.04887159  0.62610074     0.08700
C279        C  0.92773649  0.07320813  0.64628049     0.10500
C280        C  0.90854280  0.09253137  0.66665886    -0.16200
C281        C  0.50026220  0.99995613  0.44483189    -0.15400
C282        C  0.50024526  0.99988740  0.47959790     0.08700
C283        C  0.50022415  0.49980104  0.52025632     0.10500
C284        C  0.50022111  0.49974789  0.55502235    -0.16200
C285        C  0.00022126  0.49972353  0.94483448    -0.15400
C286        C  0.50023864  0.49980752  0.97959962     0.08700
C287        C  0.50025990  0.99991211  0.02025659     0.10500
C288        C  0.50026326  0.99998017  0.05502176    -0.16200
C289        C  0.59291138  0.40814807  0.33319133    -0.15400
C290        C  0.57362487  0.42737911  0.35356924     0.08700
C291        C  0.54935468  0.45145062  0.37374980     0.10500
C292        C  0.52759704  0.47298423  0.38816378    -0.16200
C293        C  0.81560719  0.40736024  0.33317851    -0.15400
C294        C  0.85414286  0.42664666  0.35357549     0.08700
C295        C  0.90251269  0.45090642  0.37377795     0.10500
C296        C  0.94584364  0.47266059  0.38819497    -0.16200
C297        C  0.59196241  0.18463881  0.33321733    -0.15400
C298        C  0.57280268  0.14611464  0.35361600     0.08700
C299        C  0.54882985  0.09775351  0.37381336     0.10500
C300        C  0.52733948  0.05442835  0.38821976    -0.16200
C301        C  0.52725114  0.47267713  0.11169928    -0.15400
C302        C  0.54874036  0.45087506  0.12611571     0.08700
C303        C  0.57274611  0.42653598  0.14629501     0.10500
C304        C  0.59193936  0.40720695  0.16667085    -0.16200
C305        C  0.81554837  0.40827166  0.16661474    -0.15400
C306        C  0.85408299  0.42745935  0.14621816     0.08700
C307        C  0.90246148  0.45146101  0.12602988     0.10500
C308        C  0.94580300  0.47296091  0.11163237    -0.16200
C309        C  0.52760129  0.05442577  0.11164155    -0.15400
C310        C  0.54934475  0.09774647  0.12605209     0.08700
C311        C  0.57357629  0.14610373  0.14625093     0.10500
C312        C  0.59283889  0.18462645  0.16664791    -0.16200
Fe313      Fe  0.70593865  0.91159904  0.24991644     1.65800
Fe314      Fe  0.70590687  0.79430940  0.24991426     1.73200
Fe315      Fe  0.58854259  0.79420756  0.24993218     1.54400
O316        O  0.58311637  0.84171552  0.29162366    -0.78500
O317        O  0.66040237  0.74360044  0.20653484    -0.76900
O318        O  0.66046919  0.91678001  0.29331166    -0.81100
O319        O  0.65839379  0.91700464  0.20823631    -0.75900
O320        O  0.58332795  0.74353371  0.29332662    -0.77700
O321        O  0.75887763  0.84184648  0.20821403    -0.80400
C322        C  0.61264417  0.88656194  0.19493438     1.00300
C323        C  0.61355920  0.88745416  0.30492438     1.07800
O324        O  0.66679516  0.83337226  0.24992120    -1.09400
O325        O  0.75663168  0.83980753  0.29329202    -0.71800
O326        O  0.75893524  0.91709201  0.29159988    -0.75300
O327        O  0.58332386  0.83966031  0.20654228    -0.76000
C328        C  0.77423815  0.88669336  0.30490309     0.99200
O329        O  0.75662577  0.91685162  0.20651640    -0.74000
O330        O  0.65838248  0.74133024  0.29161382    -0.79200
C331        C  0.61349516  0.72597779  0.19492705     1.01900
C332        C  0.61264670  0.72598723  0.30493220     1.07800
O333        O  0.58306921  0.74124849  0.20823785    -0.74800
C334        C  0.77419658  0.88756529  0.19490194     1.06100
C335        C  0.50023552  0.50001322  0.09724874     0.00600
C336        C  0.50026580  0.50000870  0.40260343     0.00600
Fe337      Fe  0.79454434  0.58810421  0.74991268     1.65800
Fe338      Fe  0.79457754  0.70539552  0.74994183     1.73200
Fe339      Fe  0.91194221  0.70549626  0.74994758     1.54400
O340        O  0.91736322  0.65798243  0.79164090    -0.78500
O341        O  0.84010391  0.75615273  0.70658700    -0.76900
O342        O  0.84002846  0.58289558  0.79328709    -0.81100
O343        O  0.84207390  0.58272336  0.70821091    -0.75700
O344        O  0.91715666  0.75616360  0.79334126    -0.77700
O345        O  0.74162719  0.65790057  0.70821876    -0.80400
C346        C  0.88783611  0.61316376  0.69492774     1.00300
C347        C  0.88692763  0.61222620  0.80491857     1.07800
O348        O  0.83368890  0.66633168  0.74993374    -1.09400
O349        O  0.74383053  0.65985520  0.79329764    -0.71800
O350        O  0.74156697  0.58258996  0.79161639    -0.75300
O351        O  0.91716673  0.66004988  0.70655958    -0.76000
C352        C  0.72624510  0.61297335  0.80491453     0.99200
O353        O  0.74383721  0.58287342  0.70653214    -0.74000
O354        O  0.84208060  0.75832823  0.79166682    -0.79200
C355        C  0.88700253  0.77376188  0.69496400     1.01900
C356        C  0.88782582  0.77368178  0.80497029     1.07800
O357        O  0.91741798  0.75846207  0.70825226    -0.74800
C358        C  0.72628715  0.61217706  0.69491205     1.06100
C359        C  0.00021614  0.99965439  0.90260751     0.00600
C360        C  0.50024992  0.99973105  0.59725084     0.00600
C361        C  0.97313940  0.94522948  0.88824155    -0.15400
C362        C  0.95164575  0.90189885  0.87384883     0.08700
C363        C  0.92766937  0.85353450  0.85366141     0.10500
C364        C  0.90850821  0.81501402  0.83326322    -0.16200
C365        C  0.68487775  0.59229321  0.83319054    -0.15400
C366        C  0.64634176  0.57300244  0.85358661     0.08700
C367        C  0.59796999  0.54874376  0.87378546     0.10500
C368        C  0.55463758  0.52699422  0.88819928    -0.16200
C369        C  0.90757236  0.59151958  0.83318100    -0.15400
C370        C  0.92685835  0.57228297  0.85355674     0.08700
C371        C  0.95112893  0.54820899  0.87373705     0.10500
C372        C  0.97288654  0.52667576  0.88815482    -0.16200
C373        C  0.97288832  0.94532353  0.61166110    -0.15400
C374        C  0.95114897  0.90200812  0.62608515     0.08700
C375        C  0.92692148  0.85365397  0.64629382     0.10500
C376        C  0.90766053  0.81512785  0.66669160    -0.16200
C377        C  0.68493466  0.59148496  0.66662453    -0.15400
C378        C  0.64640039  0.57230153  0.64622694     0.08700
C379        C  0.59802349  0.54829781  0.62603540     0.10500
C380        C  0.55468321  0.52679246  0.61163492    -0.16200
C381        C  0.97323157  0.52706936  0.61168824    -0.15400
C382        C  0.95174192  0.54887152  0.62610076     0.08700
C383        C  0.92773646  0.57320797  0.64628052     0.10500
C384        C  0.90854283  0.59253127  0.66665888    -0.16200
C385        C  0.50026217  0.49995618  0.44483189    -0.15400
C386        C  0.50024515  0.49988726  0.47959790     0.08700
C387        C  0.50022403  0.99980117  0.52025633     0.10500
C388        C  0.50022091  0.99974783  0.55502236    -0.16200
C389        C  0.00022127  0.99972370  0.94483448    -0.15400
C390        C  0.50023870  0.99980774  0.97959962     0.08700
C391        C  0.50025990  0.49991189  0.02025660     0.10500
C392        C  0.50026317  0.49998002  0.05502176    -0.16200
C393        C  0.59291128  0.90814807  0.33319127    -0.15400
C394        C  0.57362470  0.92737903  0.35356920     0.08700
C395        C  0.54935476  0.95145076  0.37374981     0.10500
C396        C  0.52759711  0.97298435  0.38816376    -0.16200
C397        C  0.81560730  0.90736029  0.33317849    -0.15400
C398        C  0.85414291  0.92664661  0.35357548     0.08700
C399        C  0.90251273  0.95090652  0.37377794     0.10500
C400        C  0.94584363  0.97266070  0.38819499    -0.16200
C401        C  0.59196238  0.68463888  0.33321735    -0.15400
C402        C  0.57280271  0.64611464  0.35361595     0.08700
C403        C  0.54882995  0.59775349  0.37381332     0.10500
C404        C  0.52733956  0.55442834  0.38821974    -0.16200
C405        C  0.52725112  0.97267698  0.11169925    -0.15400
C406        C  0.54874031  0.95087488  0.12611567     0.08700
C407        C  0.57274614  0.92653590  0.14629498     0.10500
C408        C  0.59193955  0.90720708  0.16667085    -0.16200
C409        C  0.81554829  0.90827159  0.16661469    -0.15400
C410        C  0.85408296  0.92745928  0.14621812     0.08700
C411        C  0.90246147  0.95146117  0.12602987     0.10500
C412        C  0.94580303  0.97296105  0.11163237    -0.16200
C413        C  0.52760108  0.55442583  0.11164152    -0.15400
C414        C  0.54934460  0.59774656  0.12605204     0.08700
C415        C  0.57357637  0.64610381  0.14625091     0.10500
C416        C  0.59283898  0.68462644  0.16664797    -0.16200
loop_ 
_geom_bond_atom_site_label_1 
_geom_bond_atom_site_label_2 
_geom_bond_distance 
_geom_bond_site_symmetry_2 
_ccdc_geom_bond_type 
Fe1          O17   2.064       .  S
Fe1           O7   2.067       .  S
Fe1          O14   2.067       .  S
Fe1           O6   2.064       .  S
Fe1          O12   1.983       .  S
Fe2           O5   2.064       .  S
Fe2           O9   2.066       .  S
Fe2          O13   2.064       .  S
Fe2          O18   2.066       .  S
Fe2          O12   1.983       .  S
Fe3          O21   2.067       .  S
Fe3           O8   2.064       .  S
Fe3          O15   2.064       .  S
Fe3           O4   2.067       .  S
Fe3          O12   1.983       .  S
O4           C11   1.267       .  A
O5           C19   1.267       .  A
O6           C11   1.267       .  A
O7           C10   1.267       .  A
O8           C20   1.267       .  A
O9           C22   1.267       .  A
C10          O15   1.267       .  A
C10          C96   1.435       .  S
C11          C81   1.435       .  S
O13          C16   1.267       .  A
O14          C16   1.267       .  A
C16          C85   1.435       .  S
O17          C22   1.267       .  A
O18          C20   1.267       .  A
C19          O21   1.267       .  A
C19         C104   1.435       .  S
C20          C89   1.435       .  S
C22          C97   1.435       .  S
C23          C80   1.463   1_545  S
C23         C101   1.467       .  S
C23         C197   1.467   1_545  S
C23         C412   1.467   1_445  S
C24          C73   1.464   1_545  S
C24          C92   1.467       .  S
C24         C188   1.467   1_545  S
C24         C400   1.467   1_445  S
Fe25         O41   2.064       .  S
Fe25         O31   2.067       .  S
Fe25         O38   2.067       .  S
Fe25         O30   2.064       .  S
Fe25         O36   1.983       .  S
Fe26         O29   2.064       .  S
Fe26         O33   2.066       .  S
Fe26         O37   2.064       .  S
Fe26         O42   2.066       .  S
Fe26         O36   1.983       .  S
Fe27         O45   2.067       .  S
Fe27         O32   2.064       .  S
Fe27         O39   2.064       .  S
Fe27         O28   2.067       .  S
Fe27         O36   1.983       .  S
O28          C35   1.267       .  A
O29          C43   1.267       .  A
O30          C35   1.267       .  A
O31          C34   1.267       .  A
O32          C44   1.267       .  A
O33          C46   1.267       .  A
C34          O39   1.267       .  A
C34          C72   1.435       .  S
C35          C57   1.435       .  S
O37          C40   1.267       .  A
O38          C40   1.267       .  A
C40          C53   1.435       .  S
O41          C46   1.267       .  A
O42          C44   1.267       .  A
C43          O45   1.267       .  A
C43          C64   1.435       .  S
C44          C52   1.435       .  S
C46          C65   1.435       .  S
C47          C49   1.467       .  S
C47          C77   1.463       .  S
C47         C368   1.467       .  S
C47         C164   1.467       .  S
C48          C76   1.464       .  S
C48         C269   1.467   1_455  S
C48         C172   1.467       .  S
C48         C381   1.467   1_455  S
C49          C50   1.207       .  T
C50          C51   1.412       .  S
C51          C52   1.206       .  T
C53          C54   1.206       .  T
C54          C55   1.412       .  S
C55          C56   1.207       .  T
C56         C359   1.467   1_545  S
C57          C58   1.206       .  T
C58          C59   1.412       .  S
C59          C60   1.207       .  T
C60         C151   1.467   1_545  S
C61         C256   1.467       .  S
C61          C62   1.207       .  T
C62          C63   1.412       .  S
C63          C64   1.206       .  T
C65          C66   1.206       .  T
C66          C67   1.412       .  S
C67          C68   1.207       .  T
C68         C152   1.467   1_545  S
C69         C360   1.467   1_545  S
C69          C70   1.207       .  T
C70          C71   1.412       .  S
C71          C72   1.206       .  T
C73          C74   1.205       .  T
C74         C179   1.409       .  S
C75          C76   1.205       .  T
C75         C178   1.409       .  S
C77         C286   1.205       .  T
C78         C285   1.205       .  T
C78         C183   1.409   1_556  S
C79          C80   1.205       .  T
C79         C182   1.409   1_554  S
C81          C82   1.206       .  T
C82          C83   1.412       .  S
C83          C84   1.207       .  T
C84         C128   1.467       .  S
C85          C86   1.206       .  T
C86          C87   1.412       .  S
C87          C88   1.207       .  T
C88         C336   1.467       .  S
C89          C90   1.206       .  T
C90          C91   1.412       .  S
C91          C92   1.207       .  T
C93         C127   1.467       .  S
C93          C94   1.207       .  T
C94          C95   1.412       .  S
C95          C96   1.206       .  T
C97          C98   1.206       .  T
C98          C99   1.412       .  S
C99         C100   1.207       .  T
C100        C335   1.467       .  S
C101        C102   1.207       .  T
C102        C103   1.412       .  S
C103        C104   1.206       .  T
Fe105       O121   2.064       .  S
Fe105       O111   2.067       .  S
Fe105       O118   2.067       .  S
Fe105       O110   2.064       .  S
Fe105       O116   1.983       .  S
Fe106       O109   2.064       .  S
Fe106       O113   2.066       .  S
Fe106       O117   2.064       .  S
Fe106       O122   2.066       .  S
Fe106       O116   1.983       .  S
Fe107       O125   2.067       .  S
Fe107       O112   2.064       .  S
Fe107       O119   2.064       .  S
Fe107       O108   2.067       .  S
Fe107       O116   1.983       .  S
O108        C115   1.267       .  A
O109        C123   1.267       .  A
O110        C115   1.267       .  A
O111        C114   1.267       .  A
O112        C124   1.267       .  A
O113        C126   1.267       .  A
C114        O119   1.267       .  A
C114        C200   1.435       .  S
C115        C185   1.435       .  S
O117        C120   1.267       .  A
O118        C120   1.267       .  A
C120        C189   1.435       .  S
O121        C126   1.267       .  A
O122        C124   1.267       .  A
C123        O125   1.267       .  A
C123        C208   1.435       .  S
C124        C193   1.435       .  S
C126        C201   1.435       .  S
C127        C184   1.463       .  S
C127        C308   1.467   1_455  S
C127        C205   1.467       .  S
C128        C177   1.464       .  S
C128        C296   1.467   1_455  S
C128        C196   1.467       .  S
Fe129       O145   2.064       .  S
Fe129       O135   2.067       .  S
Fe129       O142   2.067       .  S
Fe129       O134   2.064       .  S
Fe129       O140   1.983       .  S
Fe130       O133   2.064       .  S
Fe130       O137   2.066       .  S
Fe130       O141   2.064       .  S
Fe130       O146   2.066       .  S
Fe130       O140   1.983       .  S
Fe131       O149   2.067       .  S
Fe131       O136   2.064       .  S
Fe131       O143   2.064       .  S
Fe131       O132   2.067       .  S
Fe131       O140   1.983       .  S
O132        C139   1.267       .  A
O133        C147   1.267       .  A
O134        C139   1.267       .  A
O135        C138   1.267       .  A
O136        C148   1.267       .  A
O137        C150   1.267       .  A
C138        O143   1.267       .  A
C138        C176   1.435       .  S
C139        C161   1.435       .  S
O141        C144   1.267       .  A
O142        C144   1.267       .  A
C144        C157   1.435       .  S
O145        C150   1.267       .  A
O146        C148   1.267       .  A
C147        O149   1.267       .  A
C147        C168   1.435       .  S
C148        C156   1.435       .  S
C150        C169   1.435       .  S
C151        C153   1.467       .  S
C151        C264   1.467   1_565  S
C151        C181   1.463       .  S
C152        C373   1.467   1_455  S
C152        C277   1.467   1_465  S
C152        C180   1.464       .  S
C153        C154   1.207       .  T
C154        C155   1.412       .  S
C155        C156   1.206       .  T
C157        C158   1.206       .  T
C158        C159   1.412       .  S
C159        C160   1.207       .  T
C160        C255   1.467       .  S
C161        C162   1.206       .  T
C162        C163   1.412       .  S
C163        C164   1.207       .  T
C165        C360   1.467       .  S
C165        C166   1.207       .  T
C166        C167   1.412       .  S
C167        C168   1.206       .  T
C169        C170   1.206       .  T
C170        C171   1.412       .  S
C171        C172   1.207       .  T
C173        C256   1.467       .  S
C173        C174   1.207       .  T
C174        C175   1.412       .  S
C175        C176   1.206       .  T
C177        C178   1.205       .  T
C179        C180   1.205       .  T
C181        C390   1.205       .  T
C182        C389   1.205       .  T
C183        C184   1.205       .  T
C185        C186   1.206       .  T
C186        C187   1.412       .  S
C187        C188   1.207       .  T
C189        C190   1.206       .  T
C190        C191   1.412       .  S
C191        C192   1.207       .  T
C192        C232   1.467   1_565  S
C193        C194   1.206       .  T
C194        C195   1.412       .  S
C195        C196   1.207       .  T
C197        C198   1.207       .  T
C198        C199   1.412       .  S
C199        C200   1.206       .  T
C201        C202   1.206       .  T
C202        C203   1.412       .  S
C203        C204   1.207       .  T
C204        C231   1.467   1_565  S
C205        C206   1.207       .  T
C206        C207   1.412       .  S
C207        C208   1.206       .  T
Fe209       O225   2.064       .  S
Fe209       O215   2.067       .  S
Fe209       O222   2.067       .  S
Fe209       O214   2.064       .  S
Fe209       O220   1.983       .  S
Fe210       O213   2.064       .  S
Fe210       O217   2.066       .  S
Fe210       O221   2.064       .  S
Fe210       O226   2.066       .  S
Fe210       O220   1.983       .  S
Fe211       O229   2.067       .  S
Fe211       O216   2.064       .  S
Fe211       O223   2.064       .  S
Fe211       O212   2.067       .  S
Fe211       O220   1.983       .  S
O212        C219   1.267       .  A
O213        C227   1.267       .  A
O214        C219   1.267       .  A
O215        C218   1.267       .  A
O216        C228   1.267       .  A
O217        C230   1.267       .  A
C218        O223   1.267       .  A
C218        C304   1.435       .  S
C219        C289   1.435       .  S
O221        C224   1.267       .  A
O222        C224   1.267       .  A
C224        C293   1.435       .  S
O225        C230   1.267       .  A
O226        C228   1.267       .  A
C227        O229   1.267       .  A
C227        C312   1.435       .  S
C228        C297   1.435       .  S
C230        C305   1.435       .  S
C231        C288   1.463   1_545  S
C231        C405   1.467   1_545  S
C231        C309   1.467       .  S
C232        C281   1.464   1_545  S
C232        C396   1.467   1_545  S
C232        C300   1.467       .  S
Fe233       O249   2.064       .  S
Fe233       O239   2.067       .  S
Fe233       O246   2.067       .  S
Fe233       O238   2.064       .  S
Fe233       O244   1.983       .  S
Fe234       O237   2.064       .  S
Fe234       O241   2.066       .  S
Fe234       O245   2.064       .  S
Fe234       O250   2.066       .  S
Fe234       O244   1.983       .  S
Fe235       O253   2.067       .  S
Fe235       O240   2.064       .  S
Fe235       O247   2.064       .  S
Fe235       O236   2.067       .  S
Fe235       O244   1.983       .  S
O236        C243   1.267       .  A
O237        C251   1.267       .  A
O238        C243   1.267       .  A
O239        C242   1.267       .  A
O240        C252   1.267       .  A
O241        C254   1.267       .  A
C242        O247   1.267       .  A
C242        C280   1.435       .  S
C243        C265   1.435       .  S
O245        C248   1.267       .  A
O246        C248   1.267       .  A
C248        C261   1.435       .  S
O249        C254   1.267       .  A
O250        C252   1.267       .  A
C251        O253   1.267       .  A
C251        C272   1.435       .  S
C252        C260   1.435       .  S
C254        C273   1.435       .  S
C255        C257   1.467   1_455  S
C255        C372   1.467   1_455  S
C255        C285   1.463       .  S
C256        C380   1.467       .  S
C256        C284   1.464       .  S
C257        C258   1.207       .  T
C258        C259   1.412       .  S
C259        C260   1.206       .  T
C261        C262   1.206       .  T
C262        C263   1.412       .  S
C263        C264   1.207       .  T
C265        C266   1.206       .  T
C266        C267   1.412       .  S
C267        C268   1.207       .  T
C268        C359   1.467   1_645  S
C269        C270   1.207       .  T
C270        C271   1.412       .  S
C271        C272   1.206       .  T
C273        C274   1.206       .  T
C274        C275   1.412       .  S
C275        C276   1.207       .  T
C276        C360   1.467   1_545  S
C277        C278   1.207       .  T
C278        C279   1.412       .  S
C279        C280   1.206       .  T
C281        C282   1.205       .  T
C282        C387   1.409       .  S
C283        C284   1.205       .  T
C283        C386   1.409       .  S
C286        C391   1.409   1_556  S
C287        C288   1.205       .  T
C287        C390   1.409   1_554  S
C289        C290   1.206       .  T
C290        C291   1.412       .  S
C291        C292   1.207       .  T
C292        C336   1.467       .  S
C293        C294   1.206       .  T
C294        C295   1.412       .  S
C295        C296   1.207       .  T
C297        C298   1.206       .  T
C298        C299   1.412       .  S
C299        C300   1.207       .  T
C301        C335   1.467       .  S
C301        C302   1.207       .  T
C302        C303   1.412       .  S
C303        C304   1.206       .  T
C305        C306   1.206       .  T
C306        C307   1.412       .  S
C307        C308   1.207       .  T
C309        C310   1.207       .  T
C310        C311   1.412       .  S
C311        C312   1.206       .  T
Fe313       O329   2.064       .  S
Fe313       O319   2.067       .  S
Fe313       O326   2.067       .  S
Fe313       O318   2.064       .  S
Fe313       O324   1.983       .  S
Fe314       O317   2.064       .  S
Fe314       O321   2.066       .  S
Fe314       O325   2.064       .  S
Fe314       O330   2.066       .  S
Fe314       O324   1.983       .  S
Fe315       O333   2.067       .  S
Fe315       O320   2.064       .  S
Fe315       O327   2.064       .  S
Fe315       O316   2.067       .  S
Fe315       O324   1.983       .  S
O316        C323   1.267       .  A
O317        C331   1.267       .  A
O318        C323   1.267       .  A
O319        C322   1.267       .  A
O320        C332   1.267       .  A
O321        C334   1.267       .  A
C322        O327   1.267       .  A
C322        C408   1.435       .  S
C323        C393   1.435       .  S
O325        C328   1.267       .  A
O326        C328   1.267       .  A
C328        C397   1.435       .  S
O329        C334   1.267       .  A
O330        C332   1.267       .  A
C331        O333   1.267       .  A
C331        C416   1.435       .  S
C332        C401   1.435       .  S
C334        C409   1.435       .  S
C335        C392   1.463       .  S
C335        C413   1.467       .  S
C336        C385   1.464       .  S
C336        C404   1.467       .  S
Fe337       O353   2.064       .  S
Fe337       O343   2.067       .  S
Fe337       O350   2.067       .  S
Fe337       O342   2.064       .  S
Fe337       O348   1.983       .  S
Fe338       O341   2.064       .  S
Fe338       O345   2.066       .  S
Fe338       O349   2.064       .  S
Fe338       O354   2.066       .  S
Fe338       O348   1.983       .  S
Fe339       O357   2.067       .  S
Fe339       O344   2.064       .  S
Fe339       O351   2.064       .  S
Fe339       O340   2.067       .  S
Fe339       O348   1.983       .  S
O340        C347   1.267       .  A
O341        C355   1.267       .  A
O342        C347   1.267       .  A
O343        C346   1.267       .  A
O344        C356   1.267       .  A
O345        C358   1.267       .  A
C346        O351   1.267       .  A
C346        C384   1.435       .  S
C347        C369   1.435       .  S
O349        C352   1.267       .  A
O350        C352   1.267       .  A
C352        C365   1.435       .  S
O353        C358   1.267       .  A
O354        C356   1.267       .  A
C355        O357   1.267       .  A
C355        C376   1.435       .  S
C356        C364   1.435       .  S
C358        C377   1.435       .  S
C359        C361   1.467   1_455  S
C359        C389   1.463       .  S
C360        C388   1.464       .  S
C361        C362   1.207       .  T
C362        C363   1.412       .  S
C363        C364   1.206       .  T
C365        C366   1.206       .  T
C366        C367   1.412       .  S
C367        C368   1.207       .  T
C369        C370   1.206       .  T
C370        C371   1.412       .  S
C371        C372   1.207       .  T
C373        C374   1.207       .  T
C374        C375   1.412       .  S
C375        C376   1.206       .  T
C377        C378   1.206       .  T
C378        C379   1.412       .  S
C379        C380   1.207       .  T
C381        C382   1.207       .  T
C382        C383   1.412       .  S
C383        C384   1.206       .  T
C385        C386   1.205       .  T
C387        C388   1.205       .  T
C391        C392   1.205       .  T
C393        C394   1.206       .  T
C394        C395   1.412       .  S
C395        C396   1.207       .  T
C397        C398   1.206       .  T
C398        C399   1.412       .  S
C399        C400   1.207       .  T
C401        C402   1.206       .  T
C402        C403   1.412       .  S
C403        C404   1.207       .  T
C405        C406   1.207       .  T
C406        C407   1.412       .  S
C407        C408   1.206       .  T
C409        C410   1.206       .  T
C410        C411   1.412       .  S
C411        C412   1.207       .  T
C413        C414   1.207       .  T
C414        C415   1.412       .  S
C415        C416   1.206       .  T
