geometry optimzed in LAMMPS
_audit_creation_date              2020-12-01 
_audit_creation_method            'lammps2cif' 
_symmetry_space_group_name_H-M    'P1' 
_symmetry_Int_Tables_number       1 
_symmetry_cell_setting            triclinic 
loop_ 
_symmetry_equiv_pos_as_xyz 
  x,y,z 
_cell_length_a                    38.62113222 
_cell_length_b                    39.60709076005767 
_cell_length_c                    39.95659326774539 
_cell_angle_alpha                 94.01030174389898 
_cell_angle_beta                  89.42824892484035 
_cell_angle_gamma                 90.48471666594966 
loop_ 
_atom_site_label 
_atom_site_type_symbol 
_atom_site_fract_x 
_atom_site_fract_y 
_atom_site_fract_z 
_atom_site_charge 
C1          C  0.08835737  0.10567079  0.10526878     0.87000
C2          C  0.11178404  0.12927842  0.08594674    -0.53200
C3          C  0.13355092  0.14922636  0.10460612     0.09900
C4          C  0.12642011  0.14641953  0.14352763     0.20900
C5          C  0.11184252  0.08714988  0.12865900    -0.54000
C6          C  0.13299819  0.10660501  0.14845551     0.10000
C7          C  0.06639203  0.13188160  0.12833807    -0.53500
C8          C  0.08524516  0.15492343  0.14868171     0.10600
H9          H  0.11072872  0.13100047  0.05898592     0.15100
H10         H  0.14294614  0.16374623  0.15957272     0.00900
H11         H  0.11350818  0.05972844  0.12737963     0.15400
H12         H  0.03854895  0.13403526  0.12610097     0.15200
C13         C  0.07123474  0.25576771  0.20170926     0.30500
C14         C  0.06967793  0.18993672  0.16822558     0.30500
C15         C  0.08653677  0.22661439  0.21958981    -0.05700
C16         C  0.03200512  0.23990092  0.19420741    -0.06500
C17         C  0.08600987  0.25150080  0.16630686    -0.06300
C18         C  0.08473658  0.19398972  0.20373191    -0.05700
C19         C  0.03138851  0.20659222  0.17647192    -0.06500
C20         C  0.08578589  0.21906791  0.14999469    -0.06300
C21         C  0.08107256  0.17265997  0.22967486    -0.31700
N22         N  0.08468040  0.19003996  0.25985542     0.14800
C23         C  0.08630482  0.22302865  0.25374609    -0.31700
H24         H  0.08323200  0.24345304  0.27278422     0.16700
C25         C  0.49536789  0.19226451  0.16994917    -0.30700
N26         N  0.47317862  0.21743383  0.18362435     0.13500
C27         C  0.49553070  0.24234598  0.19744266    -0.30700
C28         C  0.08414532  0.22377246  0.11610797    -0.31000
N29         N  0.08481218  0.25711026  0.11086445     0.14000
H30         H  0.07825592  0.20401575  0.09695976     0.16600
C31         C  0.08329402  0.27377130  0.14140125    -0.31000
H32         H  0.07579455  0.29994413  0.14517906     0.16600
H33         H  0.48658432  0.26582164  0.20993202     0.16600
H34         H  0.07105690  0.14714384  0.22695213     0.16700
H35         H  0.48613642  0.16892648  0.15729334     0.16600
C36         C  0.09183486  0.33807898  0.26452580     0.87000
C37         C  0.11401968  0.31286101  0.28314207    -0.53200
C38         C  0.13530433  0.29228039  0.26354713     0.09900
C39         C  0.13005503  0.29798623  0.22545973     0.20900
C40         C  0.11702106  0.35720639  0.24278177    -0.54000
C41         C  0.13869906  0.33826218  0.22325331     0.10000
C42         C  0.06988538  0.31335016  0.24046617    -0.53500
C43         C  0.08842076  0.29051726  0.22002903     0.10600
H44         H  0.11230865  0.31066431  0.31001668     0.15100
H45         H  0.14685934  0.28122267  0.20902046     0.00900
H46         H  0.11949468  0.38462048  0.24511174     0.15400
H47         H  0.04194516  0.31128231  0.24269413     0.15200
C48         C  0.16400716  0.08931850  0.16719934     0.30500
C49         C  0.22221280  0.07384761  0.20233674     0.30500
C50         C  0.16557128  0.10319248  0.20304895    -0.05700
C51         C  0.17084124  0.04803883  0.17228666    -0.06500
C52         C  0.19937380  0.10234978  0.15404767    -0.06300
C53         C  0.19417550  0.09464294  0.22089265    -0.05700
C54         C  0.20131582  0.04210140  0.19076578    -0.06500
C55         C  0.22823922  0.09087791  0.16948500    -0.06300
C56         C  0.18532495  0.09861305  0.25413585    -0.31700
N57         N  0.15399941  0.11313925  0.25676072     0.14800
C58         C  0.14094034  0.11392765  0.22570757    -0.31700
H59         H  0.11455786  0.11780836  0.21992297     0.16700
C60         C  0.20371223  0.00816410  0.19720720    -0.30700
N61         N  0.18109463  0.49055784  0.18608298     0.13500
C62         C  0.15647979  0.01374734  0.16827867    -0.30700
C63         C  0.25650356  0.10795405  0.15793441    -0.31000
N64         N  0.24658488  0.13443805  0.14052983     0.14000
H65         H  0.28256046  0.09937460  0.16066980     0.16600
C66         C  0.21132800  0.13245979  0.14120016    -0.31000
H67         H  0.19541593  0.15356498  0.13702890     0.16600
H68         H  0.13748591  0.50626994  0.15625284     0.16600
H69         H  0.19967948  0.08921199  0.27444295     0.16700
H70         H  0.22918061  0.49860210  0.21204069     0.16600
C71         C  0.31271924  0.14297870  0.07009171     0.87000
C72         C  0.28599621  0.12753739  0.09346326    -0.53200
C73         C  0.26855104  0.14884197  0.11468485     0.09900
C74         C  0.27856633  0.18634517  0.10895971     0.20900
C75         C  0.29425332  0.16938488  0.05061997    -0.54000
C76         C  0.27224870  0.18909455  0.06892446     0.10000
C77         C  0.33710865  0.16524712  0.09406763    -0.53500
C78         C  0.32028453  0.18820570  0.11592270     0.10600
H79         H  0.28169110  0.10035961  0.09391261     0.15100
H80         H  0.26329936  0.20453091  0.12539978     0.00900
H81         H  0.29633770  0.17065226  0.02364699     0.15400
H82         H  0.36488807  0.16202535  0.09507082     0.15200
C83         C  0.10132828  0.13716131  0.33433010     0.87000
C84         C  0.12266000  0.11385644  0.30949406    -0.53200
C85         C  0.13970767  0.13021856  0.28612660     0.09900
C86         C  0.13748854  0.16854961  0.29076664     0.20900
C87         C  0.12995051  0.16102638  0.35077794    -0.54000
C88         C  0.14902875  0.17749986  0.32769023     0.10000
C89         C  0.07986635  0.16021218  0.31232660    -0.53500
C90         C  0.09896446  0.17590348  0.28909096     0.10600
H91         H  0.12225040  0.08636797  0.30877709     0.15100
H92         H  0.15270997  0.18104260  0.27129525     0.00900
H93         H  0.13718266  0.16268160  0.37677952     0.15400
H94         H  0.05178319  0.16125570  0.31296166     0.15200
C95         C  0.33758598  0.20536198  0.15006940     0.30500
C96         C  0.33712483  0.23527569  0.21595605     0.30500
C97         C  0.32035839  0.18618602  0.17746037    -0.05700
C98         C  0.37626249  0.21084938  0.16657107    -0.06500
C99         C  0.32435602  0.24156326  0.15567898    -0.06300
C100        C  0.32042292  0.20092530  0.21009652    -0.05700
C101        C  0.37611905  0.22693308  0.20024198    -0.06500
C102        C  0.32318618  0.25583159  0.18860036    -0.06300
C103        C  0.32188977  0.17473136  0.23073426    -0.31700
N104        N  0.31935489  0.14503228  0.21257436     0.14800
C105        C  0.32046464  0.15169977  0.18006362    -0.31700
H106        H  0.32543682  0.13305695  0.15964573     0.16700
C107        C  0.41224013  0.23088259  0.20887648    -0.30700
N108        N  0.43456352  0.21777248  0.18359133     0.13500
C109        C  0.41234734  0.20555789  0.15812593    -0.30700
C110        C  0.32682608  0.29021635  0.18702813    -0.31000
N111        N  0.32916558  0.29812219  0.15490610     0.14000
H112        H  0.33194086  0.30782582  0.20826623     0.16600
C113        C  0.33030199  0.26848083  0.13605885    -0.31000
H114        H  0.33869498  0.26657770  0.11013749     0.16600
H115        H  0.42144244  0.19405704  0.13433798     0.16600
H116        H  0.33090913  0.17683113  0.25617525     0.16700
H117        H  0.42127575  0.24252806  0.23251602     0.16600
C118        C  0.30792369  0.37278176  0.10512198     0.87000
C119        C  0.28623328  0.34718530  0.08298253    -0.53200
C120        C  0.27043013  0.32345692  0.09966291     0.09900
C121        C  0.27440479  0.32801014  0.13743407     0.20900
C122        C  0.28018424  0.38864185  0.13025400    -0.54000
C123        C  0.26236659  0.36489256  0.14705345     0.10000
C124        C  0.33102375  0.35163701  0.12718548    -0.53500
C125        C  0.31332142  0.32757407  0.14300512     0.10600
H126        H  0.28471992  0.34671837  0.05578466     0.15100
H127        H  0.26037409  0.30795392  0.15033870     0.00900
H128        H  0.27329199  0.41477796  0.13368599     0.15400
H129        H  0.35907435  0.35342835  0.12775132     0.15200
C130        C  0.30348472  0.06713079  0.26007856     0.87000
C131        C  0.28523668  0.09144278  0.28688236    -0.53200
C132        C  0.26631301  0.11583351  0.27409834     0.09900
C133        C  0.26658788  0.11403517  0.23588326     0.20900
C134        C  0.27397172  0.05289467  0.23675303    -0.54000
C135        C  0.25428919  0.07760735  0.22436726     0.10000
C136        C  0.32402533  0.09067189  0.23745804    -0.53500
C137        C  0.30467422  0.11547011  0.22580887     0.10600
H138        H  0.28848135  0.09048782  0.31375853     0.15100
H139        H  0.25139076  0.13476491  0.22592284     0.00900
H140        H  0.27003543  0.02649520  0.22943573     0.15400
H141        H  0.35116676  0.08911625  0.23113456     0.15200
C142        C  0.17086627  0.35627804  0.20589542     0.30500
C143        C  0.22984576  0.36955076  0.16909699     0.30500
C144        C  0.17347357  0.33962386  0.17067819    -0.05700
C145        C  0.17732776  0.39650370  0.19783281    -0.06500
C146        C  0.20633661  0.34684852  0.22113880    -0.06300
C147        C  0.20222750  0.34759635  0.15195259    -0.05700
C148        C  0.20830516  0.40193139  0.17911083    -0.06500
C149        C  0.23528013  0.35348925  0.20232468    -0.06300
C150        C  0.19254415  0.34498657  0.11898564    -0.31700
N151        N  0.16079276  0.33101496  0.11690059     0.14800
C152        C  0.14824670  0.32968919  0.14832079    -0.31700
H153        H  0.12172945  0.32614653  0.15476371     0.16700
C154        C  0.21000649  0.43578090  0.17123781    -0.30700
N155        N  0.18189418  0.45350371  0.18351327     0.13500
C156        C  0.16216131  0.43003732  0.20034837    -0.30700
C157        C  0.26310554  0.33774666  0.21592073    -0.31000
N158        N  0.25265603  0.31951198  0.24172834     0.14000
H159        H  0.28926926  0.34067792  0.20763486     0.16600
C160        C  0.21858135  0.32857315  0.24719558    -0.31000
H161        H  0.20369970  0.32439795  0.26942127     0.16600
H162        H  0.13853941  0.43655907  0.21396193     0.16600
H163        H  0.20664695  0.35530522  0.09857660     0.16700
H164        H  0.23095509  0.44716555  0.15778523     0.16600
C165        C  0.10883533  0.31086532  0.03844369     0.87000
C166        C  0.13095847  0.33287336  0.06371413    -0.53200
C167        C  0.14532628  0.31528031  0.08747923     0.09900
C168        C  0.14047559  0.27707358  0.08212520     0.20900
C169        C  0.13629354  0.28600332  0.02236081    -0.54000
C170        C  0.15273099  0.26805083  0.04530870     0.10000
C171        C  0.08467433  0.28903684  0.05984688    -0.53500
C172        C  0.10148587  0.27156641  0.08270058     0.10600
H173        H  0.13333048  0.36025097  0.06409166     0.15100
H174        H  0.15394355  0.26351611  0.10159084     0.00900
H175        H  0.14593557  0.28592223  0.99705365     0.15400
H176        H  0.05660347  0.28971459  0.05882832     0.15200
C177        C  0.32337561  0.29116085  0.30118786     0.87000
C178        C  0.29904222  0.31467318  0.28253386    -0.53200
C179        C  0.27601843  0.29915927  0.26143341     0.09900
C180        C  0.28020618  0.25940499  0.26070820     0.20900
C181        C  0.29757900  0.26855868  0.31946974    -0.54000
C182        C  0.27351557  0.25238855  0.29992611     0.10000
C183        C  0.34194240  0.26834564  0.27397295    -0.53500
C184        C  0.32117466  0.25228103  0.25088452     0.10600
H185        H  0.29935787  0.34208546  0.28622886     0.15100
H186        H  0.26206441  0.24568042  0.24313758     0.00900
H187        H  0.29510986  0.26826027  0.34631142     0.15400
H188        H  0.36994392  0.26753505  0.27150015     0.15200
C189        C  0.18426928  0.24546155  0.03965462     0.30500
C190        C  0.24139198  0.20676740  0.05102149     0.30500
C191        C  0.17760612  0.21237991  0.05625282    -0.05700
C192        C  0.20417701  0.23384844  0.00676941    -0.06500
C193        C  0.21321526  0.26207694  0.05999767    -0.06300
C194        C  0.20565867  0.19267825  0.06201443    -0.05700
C195        C  0.23427923  0.21401127  0.01117402    -0.06500
C196        C  0.24084819  0.24239142  0.06687500    -0.06300
C197        C  0.19223058  0.16568798  0.07873757    -0.31700
N198        N  0.15817552  0.17129753  0.08777552     0.14800
C199        C  0.14898815  0.19825018  0.07083356    -0.31700
H200        H  0.12311965  0.20622713  0.06686520     0.16700
C201        C  0.24935126  0.20802664  0.47641959    -0.30700
N202        N  0.22844952  0.22341651  0.45332221     0.13500
C203        C  0.20205083  0.23752575  0.47241117    -0.30700
C204        C  0.26554718  0.26317650  0.08124037    -0.31000
N205        N  0.25374406  0.29507658  0.08288835     0.14000
H206        H  0.29105956  0.25564293  0.08691393     0.16600
C207        C  0.22320772  0.29497363  0.06688956    -0.31000
H208        H  0.21012991  0.31683497  0.05876952     0.16600
H209        H  0.18062664  0.25029692  0.46180240     0.16600
H210        H  0.20605758  0.14262602  0.08161652     0.16700
H211        H  0.27202922  0.19337600  0.46906041     0.16600
C212        C  0.18211302  0.19893418  0.33281307     0.30500
C213        C  0.24113371  0.23454154  0.31713769     0.30500
C214        C  0.17673625  0.23274779  0.31689519    -0.05700
C215        C  0.20319688  0.21046313  0.36452531    -0.06500
C216        C  0.21033713  0.18016909  0.31148581    -0.06300
C217        C  0.20584373  0.24830836  0.30509955    -0.05700
C218        C  0.23405598  0.22912639  0.35813424    -0.06500
C219        C  0.23925014  0.19845455  0.30319288    -0.06300
C220        C  0.19322523  0.26476222  0.27770513    -0.31700
N221        N  0.15786410  0.26750713  0.27882123     0.14800
C222        C  0.14802996  0.24754651  0.30358336    -0.31700
H223        H  0.12173837  0.24325750  0.31160872     0.16700
C224        C  0.24808805  0.23441964  0.39199702    -0.30700
N225        N  0.22759411  0.21957223  0.41638261     0.13500
C226        C  0.20014317  0.20566229  0.39888026    -0.30700
C227        C  0.26457763  0.17595886  0.29345940    -0.31000
N228        N  0.25204494  0.14418379  0.29397879     0.14000
H229        H  0.29114785  0.18245127  0.29019919     0.16600
C230        C  0.21976661  0.14650945  0.30750074    -0.31000
H231        H  0.20485654  0.12560908  0.31608858     0.16600
H232        H  0.17873260  0.19301456  0.41050491     0.16600
H233        H  0.20856947  0.27001909  0.25628305     0.16700
H234        H  0.27153703  0.24855184  0.39805887     0.16600
O235        O  0.48404256  0.01373376  0.52084373    -0.74800
O236        O  0.02355069  0.49369432  0.48625708    -0.53700
C237        C  0.01236170  0.00806090  0.51776477     0.79000
O238        O  0.37326177  0.38213901  0.47602927    -0.59400
O239        O  0.33049094  0.41922306  0.47253725    -0.52400
C240        C  0.34677343  0.39796769  0.48895702     0.71000
O241        O  0.49129913  0.38302097  0.46796732    -0.73900
O242        O  0.02721878  0.42320212  0.45538325    -0.54500
C243        C  0.01824614  0.39438342  0.46579361     0.77000
O244        O  0.36381019  0.99448509  0.01608415    -0.59100
O245        O  0.33302003  0.01818129  0.47236450    -0.52200
C246        C  0.34641051  0.02535101  0.50115982     0.73600
Zr247      Zr  0.42768906  0.00397134  0.49882480     2.54700
O248        O  0.42133301  0.98349171  0.05452412    -0.79600
O249        O  0.42532603  0.06298338  0.52019667    -0.93100
Zr250      Zr  0.43272680  0.40351379  0.46808524     2.64700
O251        O  0.42252205  0.40835199  0.03114052    -0.98000
O252        O  0.43302882  0.34199586  0.46047296    -0.80100
O253        O  0.46375108  0.45415495  0.48279685    -0.83400
O254        O  0.39707909  0.44932111  0.48466626    -2.18100
O255        O  0.37166627  0.05229438  0.39693331    -0.66800
O256        O  0.33206244  0.01042857  0.39781014    -0.51400
C257        C  0.34514930  0.03608349  0.38443012     0.71900
O258        O  0.48285102  0.42146469  0.34968776    -0.59700
O259        O  0.02436655  0.44602965  0.38416304    -0.51700
C260        C  0.01411629  0.43200483  0.35563137     0.73800
O261        O  0.36507664  0.43024612  0.36580590    -0.71100
O262        O  0.32907128  0.41549181  0.40429514    -0.49800
C263        C  0.34415126  0.40870548  0.37625758     0.75100
O264        O  0.49013538  0.05173587  0.40092521    -0.66500
O265        O  0.02290821  0.51836056  0.41641624    -0.53700
C266        C  0.01762402  0.03803365  0.39918367     0.73500
Zr267      Zr  0.43102765  0.03308589  0.40661728     2.77500
O268        O  0.43572713  0.04696516  0.34833662    -0.97200
O269        O  0.43202100  0.09294578  0.42517391    -0.78000
Zr270      Zr  0.42671203  0.42840906  0.37424578     2.70100
O271        O  0.42307321  0.43372931  0.31423413    -0.79300
O272        O  0.42436032  0.36754404  0.36029710    -0.98400
Zr273      Zr  0.49474502  0.46845244  0.43390774     2.21500
Zr274      Zr  0.35883993  0.45882900  0.43877868     2.11100
O275        O  0.39156131  0.47546295  0.38961624    -2.47000
O276        O  0.45836311  0.47921407  0.38774778    -0.79100
O277        O  0.39583007  0.02117349  0.45274035    -0.69700
O278        O  0.46327651  0.41744919  0.41912531    -2.32200
O279        O  0.46319470  0.01795486  0.45327404    -2.28400
O280        O  0.39653028  0.41235615  0.42234068    -0.73000
H281        H  0.38198931  0.45716144  0.00322355     0.79000
H282        H  0.47853590  0.39930539  0.41136482     0.80100
H283        H  0.37946228  0.48302847  0.37045515     0.82300
H284        H  0.47839665  0.03640839  0.46069234     0.79900
H285        H  0.44405048  0.33697601  0.43822108     0.42900
H286        H  0.44829107  0.36130878  0.35342076     0.41900
H287        H  0.42019199  0.45830919  0.31214555     0.41600
H288        H  0.45229475  0.06618322  0.34842162     0.39500
H289        H  0.41600133  0.09482330  0.44470769     0.42600
H290        H  0.44194837  0.07486300  0.50601374     0.37400
H291        H  0.41913063  0.50655553  0.06510597     0.43500
H292        H  0.40116714  0.41975367  0.03953153     0.40000
H293        H  0.44831664  0.02776332  0.33686685     0.44900
H294        H  0.42878920  0.06140710  0.03683856     0.43600
H295        H  0.41867476  0.38404144  0.03426481     0.43700
H296        H  0.42090678  0.35745133  0.38207021     0.44100
C297        C  0.34868525  0.31251073  0.32281202    -0.04800
C298        C  0.34528301  0.31396502  0.35793120    -0.01900
C299        C  0.33965315  0.34539710  0.37540872     0.03100
C300        C  0.34306781  0.37524516  0.35809602    -0.04800
C301        C  0.35385908  0.37286835  0.32397808    -0.01900
C302        C  0.36198376  0.34130138  0.30826161     0.03100
C303        C  0.34906627  0.28365182  0.37584620     0.37700
C304        C  0.35208454  0.40186083  0.30368840     0.37700
C305        C  0.37544980  0.33885147  0.27412631     0.36100
C306        C  0.32799465  0.34615010  0.40998920     0.36100
N307        N  0.38621451  0.33715151  0.24693127    -0.38700
N308        N  0.31741969  0.34572936  0.43714338    -0.38700
N309        N  0.34997315  0.42471075  0.28730702    -0.38100
N310        N  0.35191274  0.25954610  0.39034160    -0.38200
C311        C  0.08696164  0.33368259  0.01765310    -0.04800
C312        C  0.06805313  0.36033770  0.03553231    -0.01900
C313        C  0.04999795  0.38381893  0.01823925     0.03100
C314        C  0.04432501  0.37431822  0.48145253    -0.04800
C315        C  0.06281265  0.34890978  0.46290541    -0.01900
C316        C  0.08294265  0.32567260  0.47957087     0.03100
C317        C  0.06561530  0.36353211  0.07206842     0.37700
C318        C  0.05967699  0.34579190  0.42662810     0.37700
C319        C  0.09897349  0.29845117  0.45909487     0.36100
C320        C  0.03440719  0.41310503  0.03645879     0.36100
N321        N  0.11105837  0.27717493  0.44146649    -0.38700
N322        N  0.02228510  0.43648258  0.05094478    -0.38700
N323        N  0.05700696  0.34301400  0.39774398    -0.38100
N324        N  0.06388223  0.36639823  0.10107237    -0.38200
C325        C  0.32538272  0.04257651  0.27886289    -0.04800
C326        C  0.30650413  0.01926391  0.29732152    -0.01900
C327        C  0.30952913  0.01992965  0.33255902     0.03100
C328        C  0.33394558  0.04209869  0.34961176    -0.04800
C329        C  0.35480104  0.06282744  0.33009983    -0.01900
C330        C  0.35456357  0.05777345  0.29511546     0.03100
C331        C  0.28392794  0.99439592  0.28024062     0.37700
C332        C  0.37504237  0.09086547  0.34513686     0.37700
C333        C  0.38475070  0.06787078  0.27639784     0.36100
C334        C  0.30013776  0.47747184  0.34392113     0.36100
N335        N  0.40930348  0.07592258  0.26202598    -0.38700
N336        N  0.28819657  0.45124385  0.34832603    -0.38700
N337        N  0.39084368  0.11362629  0.35679797    -0.38100
N338        N  0.26596608  0.97403464  0.26724489    -0.38200
C339        C  0.33242269  0.40971911  0.01234112    -0.04800
C340        C  0.34467806  0.37834450  0.02113417    -0.01900
C341        C  0.34752532  0.37175358  0.05493820     0.03100
C342        C  0.32878021  0.39229399  0.07978875    -0.04800
C343        C  0.31849554  0.42479832  0.07158716    -0.01900
C344        C  0.31933410  0.43315450  0.03786067     0.03100
C345        C  0.34874179  0.35062570  0.99558813     0.37700
C346        C  0.30706462  0.44997902  0.09724485     0.37700
C347        C  0.30327374  0.46448073  0.02966002     0.36100
C348        C  0.36236303  0.33943245  0.06226129     0.36100
N349        N  0.28933606  0.48901379  0.02350773    -0.38700
N350        N  0.37362279  0.31331609  0.06740221    -0.38700
N351        N  0.29771851  0.47071815  0.11707807    -0.38100
N352        N  0.39675920  0.32739818  0.52352083    -0.38200
C353        C  0.07761630  0.11381108  0.35390951    -0.04800
C354        C  0.05745890  0.08908081  0.33452440    -0.01900
C355        C  0.04251331  0.06160163  0.34947974     0.03100
C356        C  0.04279420  0.06051175  0.38438733    -0.04800
C357        C  0.05983293  0.08595772  0.40445163    -0.01900
C358        C  0.07684545  0.11293117  0.38944734     0.03100
C359        C  0.05196577  0.09122497  0.29870372     0.37700
C360        C  0.05826244  0.08517787  0.44070604     0.37700
C361        C  0.08899452  0.14116624  0.41121890     0.36100
C362        C  0.02643675  0.03419277  0.32877254     0.36100
N363        N  0.09765364  0.16346369  0.42960296    -0.38700
N364        N  0.00990776  0.51219453  0.32152869    -0.38700
N365        N  0.05685594  0.08465779  0.46960366    -0.38100
N366        N  0.04744922  0.09272504  0.27025038    -0.38200
C367        C  0.32914996  0.04317740  0.02111876    -0.04800
C368        C  0.34390733  0.05335068  0.05249429    -0.01900
C369        C  0.34549509  0.08776230  0.06363705     0.03100
C370        C  0.32470657  0.11172442  0.04822084    -0.04800
C371        C  0.30307380  0.09859071  0.02086960    -0.01900
C372        C  0.34063415  0.08861327  0.50053425     0.03100
C373        C  0.35423684  0.02828577  0.07530659     0.37700
C374        C  0.35079301  0.15010558  0.49761947     0.37700
C375        C  0.33033632  0.08659123  0.46575419     0.36100
C376        C  0.36412659  0.09660876  0.09444937     0.36100
N377        N  0.32069524  0.08642669  0.43844571    -0.38700
N378        N  0.37900322  0.10261741  0.11919281    -0.38700
N379        N  0.35528956  0.17334552  0.48205252    -0.38100
N380        N  0.36168909  0.00870637  0.09412637    -0.38200
C381        C  0.07302404  0.36528348  0.28781902    -0.04800
C382        C  0.08896997  0.37958660  0.31790080    -0.01900
C383        C  0.07111689  0.40314839  0.33986950     0.03100
C384        C  0.03927217  0.41636104  0.33024925    -0.04800
C385        C  0.02892413  0.40964818  0.29638710    -0.01900
C386        C  0.04514828  0.38395591  0.27557213     0.03100
C387        C  0.12502983  0.37331895  0.32511939     0.37700
C388        C  0.00277700  0.43042433  0.28215382     0.37700
C389        C  0.03474074  0.37906560  0.24072378     0.36100
C390        C  0.08603731  0.41385118  0.37211565     0.36100
N391        N  0.02648707  0.37558441  0.21291116    -0.38700
N392        N  0.09803043  0.42229727  0.39781537    -0.38700
N393        N  0.48503662  0.44613841  0.27266739    -0.38100
N394        N  0.15384622  0.36879451  0.33098660    -0.38200
C395        C  0.07081886  0.07812570  0.08141469    -0.04800
C396        C  0.04239444  0.05926293  0.09296128    -0.01900
C397        C  0.02794054  0.03250971  0.07229773     0.03100
C398        C  0.03923610  0.02617257  0.03853028    -0.04800
C399        C  0.07086816  0.04054075  0.02897612    -0.01900
C400        C  0.08810917  0.06393435  0.05153979     0.03100
C401        C  0.02964498  0.06514166  0.12713374     0.37700
C402        C  0.08679675  0.02100046  0.50311868     0.37700
C403        C  0.12477665  0.06958933  0.04526380     0.36100
C404        C  0.49445510  0.01610687  0.08613371     0.36100
N405        N  0.15400309  0.07362879  0.03999798    -0.38700
N406        N  0.47205893  0.00241919  0.09920736    -0.38700
N407        N  0.09951961  0.01109733  0.47801534    -0.38100
N408        N  0.01952964  0.06945461  0.15444892    -0.38200
C409        C  0.09239036  0.10056328  0.60757793     0.87000
C410        C  0.11537537  0.12366108  0.58656456    -0.53200
C411        C  0.13706886  0.14513663  0.60410886     0.09900
C412        C  0.13054033  0.14345369  0.64334800     0.20900
C413        C  0.11685654  0.08346667  0.63116918    -0.54000
C414        C  0.13839450  0.10400378  0.64956319     0.10000
C415        C  0.07041550  0.12697187  0.62986473    -0.53500
C416        C  0.08893579  0.15096480  0.64891430     0.10600
H417        H  0.11428705  0.12346602  0.55942164     0.15100
H418        H  0.14703162  0.16166015  0.65846674     0.00900
H419        H  0.11881086  0.05613026  0.63102853     0.15400
H420        H  0.04245886  0.12839256  0.62817492     0.15200
C421        C  0.07085369  0.25131695  0.70060355     0.30500
C422        C  0.07169291  0.18541842  0.66779125     0.30500
C423        C  0.08700586  0.22279249  0.71889045    -0.05700
C424        C  0.03228810  0.23447584  0.69312280    -0.06500
C425        C  0.08591919  0.24724128  0.66515682    -0.06300
C426        C  0.08644366  0.19012952  0.70323550    -0.05700
C427        C  0.03260403  0.20106992  0.67566752    -0.06500
C428        C  0.08692622  0.21466106  0.64929579    -0.06300
C429        C  0.08373409  0.16865566  0.72912334    -0.31700
N430        N  0.08667023  0.18620503  0.75926214     0.14800
C431        C  0.08683418  0.21922637  0.75307222    -0.31700
H432        H  0.08267842  0.23950819  0.77202948     0.16700
C433        C  0.49538931  0.19758723  0.67041008    -0.30700
N434        N  0.47390564  0.22297895  0.68475845     0.13500
C435        C  0.49694985  0.24741177  0.69836859    -0.30700
C436        C  0.08541685  0.21855403  0.61525403    -0.31000
N437        N  0.08473124  0.25168402  0.60935037     0.14000
H438        H  0.08077103  0.19820159  0.59637231     0.16600
C439        C  0.08241548  0.26884316  0.63967152    -0.31000
H440        H  0.07360826  0.29461988  0.64287109     0.16600
H441        H  0.48862293  0.27088137  0.71132575     0.16600
H442        H  0.07499895  0.14268207  0.72636309     0.16700
H443        H  0.48555098  0.17448184  0.65777667     0.16600
C444        C  0.08797988  0.33376460  0.76392341     0.87000
C445        C  0.11058281  0.30914268  0.78236448    -0.53200
C446        C  0.13266013  0.28963390  0.76284854     0.09900
C447        C  0.12758354  0.29525285  0.72476381     0.20900
C448        C  0.11255919  0.35384615  0.74234043    -0.54000
C449        C  0.13480403  0.33568130  0.72273932     0.10000
C450        C  0.06687802  0.30851202  0.73958432    -0.53500
C451        C  0.08636346  0.28657224  0.71898262     0.10600
H452        H  0.10871742  0.30670752  0.80921216     0.15100
H453        H  0.14505199  0.27908491  0.70842746     0.00900
H454        H  0.11413351  0.38132075  0.74475405     0.15400
H455        H  0.03906734  0.30521252  0.74186022     0.15200
C456        C  0.17019782  0.08779393  0.66853093     0.30500
C457        C  0.22898300  0.07372321  0.70369275     0.30500
C458        C  0.17211411  0.10306278  0.70394869    -0.05700
C459        C  0.17733123  0.04673997  0.67500027    -0.06500
C460        C  0.20551171  0.10024802  0.65438334    -0.06300
C461        C  0.20086582  0.09505298  0.72191909    -0.05700
C462        C  0.20806796  0.04148616  0.69339425    -0.06500
C463        C  0.23466137  0.08923859  0.66984451    -0.06300
C464        C  0.19133343  0.09837769  0.75520684    -0.31700
N465        N  0.15977838  0.11253748  0.75780907     0.14800
C466        C  0.14709414  0.11318901  0.72660237    -0.31700
H467        H  0.12063309  0.11624245  0.72067145     0.16700
C468        C  0.21139731  0.00746641  0.69962128    -0.30700
N469        N  0.17738990  0.48881682  0.68472186     0.13500
C470        C  0.16356611  0.01213745  0.67138595    -0.30700
C471        C  0.26309109  0.10506544  0.65653949    -0.31000
N472        N  0.25290335  0.13060068  0.63805853     0.14000
H473        H  0.28946407  0.09810421  0.66081490     0.16600
C474        C  0.21753625  0.12948481  0.63983546    -0.31000
H475        H  0.20157743  0.15058229  0.63552289     0.16600
H476        H  0.13432002  0.50532170  0.65469062     0.16600
H477        H  0.20560037  0.08903183  0.77565809     0.16700
H478        H  0.22490232  0.49597743  0.71148863     0.16600
C479        C  0.32302836  0.14885677  0.57227914     0.87000
C480        C  0.29749327  0.12892617  0.59401417    -0.53200
C481        C  0.27571611  0.14761040  0.61443126     0.09900
C482        C  0.28139251  0.18624114  0.61010734     0.20900
C483        C  0.29862824  0.17011996  0.55178679    -0.54000
C484        C  0.27553294  0.18915726  0.56980382     0.10000
C485        C  0.34266891  0.17335666  0.59734312    -0.53500
C486        C  0.32241642  0.19203943  0.61943246     0.10600
H487        H  0.29663165  0.10147570  0.59341391     0.15100
H488        H  0.26358247  0.20215745  0.62631506     0.00900
H489        H  0.29591867  0.16738066  0.52487392     0.15400
H490        H  0.37056175  0.17252025  0.60013493     0.15200
C491        C  0.10533275  0.13522976  0.83486447     0.87000
C492        C  0.12859471  0.11261040  0.81099958    -0.53200
C493        C  0.14471600  0.12935340  0.78718658     0.09900
C494        C  0.14016459  0.16765642  0.79122214     0.20900
C495        C  0.13211123  0.16087083  0.85134482    -0.54000
C496        C  0.15046783  0.17795706  0.82838991     0.10000
C497        C  0.08284562  0.15618100  0.81172328    -0.53500
C498        C  0.10132915  0.17269301  0.78866834     0.10600
H499        H  0.12999409  0.08523067  0.81114000     0.15100
H500        H  0.15492539  0.18074005  0.77184409     0.00900
H501        H  0.13920671  0.16291240  0.87738458     0.15400
H502        H  0.05473545  0.15546076  0.81176260     0.15200
C503        C  0.33780990  0.20816664  0.65473409     0.30500
C504        C  0.33826028  0.23836650  0.72072287     0.30500
C505        C  0.32318805  0.18767771  0.68246189    -0.05700
C506        C  0.37671280  0.21632672  0.66981431    -0.06500
C507        C  0.32142286  0.24226274  0.66101322    -0.06300
C508        C  0.32450723  0.20218518  0.71543729    -0.05700
C509        C  0.37708305  0.23244361  0.70349170    -0.06500
C510        C  0.32167730  0.25723038  0.69355746    -0.06300
C511        C  0.33044352  0.17552580  0.73512034    -0.31700
N512        N  0.32882942  0.14578063  0.71654358     0.14800
C513        C  0.32617288  0.15331418  0.68435967    -0.31700
H514        H  0.32996770  0.13532986  0.66320742     0.16700
C515        C  0.41344926  0.23672511  0.71126006    -0.30700
N516        N  0.43530015  0.22381049  0.68543943     0.13500
C517        C  0.41259855  0.21135932  0.66054130    -0.30700
C518        C  0.32253405  0.29155482  0.69077788    -0.31000
N519        N  0.32100040  0.29776078  0.65824451     0.14000
H520        H  0.32816532  0.31036247  0.71091713     0.16600
C521        C  0.32254972  0.26808560  0.64013115    -0.31000
H522        H  0.33027393  0.26580909  0.61423644     0.16600
H523        H  0.42122131  0.19930731  0.63682733     0.16600
H524        H  0.33730516  0.17766598  0.76136985     0.16700
H525        H  0.42295851  0.24788661  0.73491911     0.16600
C526        C  0.30764562  0.37575463  0.61202398     0.87000
C527        C  0.29093478  0.35133919  0.58408248    -0.53200
C528        C  0.27138116  0.32614675  0.59587963     0.09900
C529        C  0.26942878  0.32778845  0.63408513     0.20900
C530        C  0.27702277  0.38910287  0.63438617    -0.54000
C531        C  0.25665748  0.36397050  0.64558689     0.10000
C532        C  0.32696428  0.35230005  0.63469705    -0.53500
C533        C  0.30696703  0.32708877  0.64524099     0.10600
H534        H  0.29537174  0.35289564  0.55740995     0.15100
H535        H  0.25379195  0.30671730  0.64355686     0.00900
H536        H  0.27310244  0.41530440  0.64243372     0.15400
H537        H  0.35397360  0.35384657  0.64124462     0.15200
C538        C  0.30464132  0.07374158  0.76932965     0.87000
C539        C  0.28227366  0.10004995  0.78971090    -0.53200
C540        C  0.26744302  0.12268883  0.77138619     0.09900
C541        C  0.27324367  0.11633215  0.73382010     0.20900
C542        C  0.27768792  0.05650080  0.74432681    -0.54000
C543        C  0.26125330  0.07913637  0.72552326     0.10000
C544        C  0.32909100  0.09411513  0.74717304    -0.53500
C545        C  0.31236086  0.11674118  0.72922932     0.10600
H546        H  0.27948083  0.10173933  0.81688627     0.15100
H547        H  0.26005202  0.13562629  0.71969546     0.00900
H548        H  0.26942176  0.03050257  0.74361534     0.15400
H549        H  0.35713828  0.09317161  0.74821285     0.15200
C550        C  0.16621698  0.35438729  0.70512418     0.30500
C551        C  0.22448647  0.36762109  0.66775440     0.30500
C552        C  0.16833961  0.33780633  0.66972769    -0.05700
C553        C  0.17245748  0.39470847  0.69706571    -0.06500
C554        C  0.20195370  0.34503336  0.72000309    -0.06300
C555        C  0.19711807  0.34545643  0.65097105    -0.05700
C556        C  0.20310684  0.39993846  0.67788436    -0.06500
C557        C  0.23050227  0.35164850  0.70075279    -0.06300
C558        C  0.18812667  0.34201083  0.61797534    -0.31700
N559        N  0.15622514  0.32865712  0.61576901     0.14800
C560        C  0.14314818  0.32800197  0.64715395    -0.31700
H561        H  0.11643477  0.32507375  0.65335058     0.16700
C562        C  0.20489410  0.43359667  0.66958956    -0.30700
N563        N  0.17737020  0.45173022  0.68238109     0.13500
C564        C  0.15777611  0.42854028  0.69981838    -0.30700
C565        C  0.25902091  0.33781282  0.71487904    -0.31000
N566        N  0.24952270  0.32036387  0.74150238     0.14000
H567        H  0.28503822  0.34246944  0.70706372     0.16600
C568        C  0.21516760  0.32850778  0.74689343    -0.31000
H569        H  0.20080941  0.32505690  0.76961626     0.16600
H570        H  0.13456905  0.43540910  0.71396859     0.16600
H571        H  0.20262148  0.35184762  0.59761343     0.16700
H572        H  0.22544818  0.44461619  0.65537237     0.16600
C573        C  0.10679720  0.30541564  0.53637422     0.87000
C574        C  0.12703380  0.32862071  0.56216880    -0.53200
C575        C  0.14197696  0.31197621  0.58628808     0.09900
C576        C  0.13969007  0.27367216  0.58099861     0.20900
C577        C  0.13597382  0.28191257  0.52106028    -0.54000
C578        C  0.15326484  0.26520481  0.54456607     0.10000
C579        C  0.08360636  0.28219235  0.55735281    -0.53500
C580        C  0.10101444  0.26603195  0.58088219     0.10600
H581        H  0.12761487  0.35608497  0.56264358     0.15100
H582        H  0.15359474  0.26104027  0.60083033     0.00900
H583        H  0.14536295  0.28135506  0.49570674     0.15400
H584        H  0.05555500  0.28131571  0.55581683     0.15200
C585        C  0.32013271  0.29853861  0.80396106     0.87000
C586        C  0.29577786  0.31976489  0.78303375    -0.53200
C587        C  0.27396195  0.30223079  0.76213806     0.09900
C588        C  0.27976277  0.26285076  0.76342368     0.20900
C589        C  0.29454751  0.27573329  0.82237089    -0.54000
C590        C  0.27197464  0.25764773  0.80264990     0.10000
C591        C  0.34062892  0.27494426  0.77823703    -0.53500
C592        C  0.32124640  0.25640327  0.75522902     0.10600
H593        H  0.29492096  0.34723257  0.78536917     0.15100
H594        H  0.26254863  0.24772533  0.74600045     0.00900
H595        H  0.29092238  0.27645820  0.84912453     0.15400
H596        H  0.36869079  0.27520396  0.77669192     0.15200
C597        C  0.18597694  0.24379638  0.53975066     0.30500
C598        C  0.24432574  0.20657986  0.55109245     0.30500
C599        C  0.18019178  0.21062909  0.55659231    -0.05700
C600        C  0.20602361  0.23234346  0.50661621    -0.06500
C601        C  0.21465333  0.26169654  0.56016690    -0.06300
C602        C  0.20874845  0.19172183  0.56235424    -0.05700
C603        C  0.23663562  0.21319137  0.51095017    -0.06500
C604        C  0.24356369  0.24301250  0.56618002    -0.06300
C605        C  0.19566564  0.16360127  0.57796875    -0.31700
N606        N  0.16112694  0.16760286  0.58638042     0.14800
C607        C  0.15157020  0.19493595  0.57006818    -0.31700
H608        H  0.12550588  0.20230142  0.56597115     0.16700
C609        C  0.24747121  0.20906698  0.97704349    -0.30700
N610        N  0.22735205  0.22539595  0.95415583     0.13500
C611        C  0.20088462  0.23975757  0.97284229    -0.30700
C612        C  0.26968395  0.26598962  0.57420319    -0.31000
N613        N  0.25732285  0.29792536  0.57521891     0.14000
H614        H  0.29653954  0.25974894  0.57501510     0.16600
C615        C  0.22440507  0.29533811  0.56404571    -0.31000
H616        H  0.20932672  0.31612658  0.55628460     0.16600
H617        H  0.17992600  0.25315759  0.96213969     0.16600
H618        H  0.21030173  0.14096969  0.58064060     0.16700
H619        H  0.26986983  0.19399242  0.96972933     0.16600
C620        C  0.18221705  0.20106967  0.83426497     0.30500
C621        C  0.23974208  0.23908544  0.81904038     0.30500
C622        C  0.17546854  0.23495473  0.81896926    -0.05700
C623        C  0.20288037  0.21276634  0.86587539    -0.06500
C624        C  0.21105108  0.18408782  0.81296414    -0.06300
C625        C  0.20406910  0.25191299  0.80733890    -0.05700
C626        C  0.23300964  0.23265147  0.85979856    -0.06500
C627        C  0.23847743  0.20363788  0.80398732    -0.06300
C628        C  0.19125407  0.26552858  0.77846829    -0.31700
N629        N  0.15585777  0.26595837  0.77843069     0.14800
C630        C  0.14647107  0.24693416  0.80397418    -0.31700
H631        H  0.12027859  0.24136237  0.81145997     0.16700
C632        C  0.24681082  0.23790451  0.89359177    -0.30700
N633        N  0.22692846  0.22174055  0.91743146     0.13500
C634        C  0.20004590  0.20707736  0.89987451    -0.30700
C635        C  0.26155191  0.18343004  0.78667354    -0.31000
N636        N  0.24989356  0.15136619  0.78648612     0.14000
H637        H  0.28602584  0.19154271  0.77777472     0.16600
C638        C  0.22067216  0.15125053  0.80534311    -0.31000
H639        H  0.20822416  0.12926851  0.81462314     0.16600
H640        H  0.17915920  0.19349955  0.91130472     0.16600
H641        H  0.20674053  0.26992511  0.75684600     0.16700
H642        H  0.26958247  0.25292439  0.90005187     0.16600
O643        O  0.47810560  0.01265185  0.02060525    -0.74800
O644        O  0.02170828  0.49670480  0.98588331    -0.53700
C645        C  0.01470031  0.00987919  0.01338677     0.79000
O646        O  0.36271474  0.40630709  0.95931619    -0.59400
O647        O  0.32262459  0.44476050  0.96717846    -0.52400
C648        C  0.33778588  0.41912051  0.97738368     0.71000
O649        O  0.48081203  0.38658255  0.97589054    -0.73900
O650        O  0.02818876  0.42547595  0.95548742    -0.54500
C651        C  0.01919715  0.39816516  0.96870289     0.77000
O652        O  0.36692710  0.00457993  0.51287448    -0.59100
O653        O  0.32638687  0.00020108  0.97549815    -0.52200
C654        C  0.33906888  0.01026636  0.00394803     0.73600
Zr655      Zr  0.42276582  0.99901833  0.99690881     2.54700
O656        O  0.42387266  0.98853543  0.55657151    -0.79600
O657        O  0.41597786  0.05853071  0.01546958    -0.93100
Zr658      Zr  0.42487644  0.41239207  0.97048775     2.64700
O659        O  0.44496946  0.40221876  0.52771643    -0.98000
O660        O  0.41958852  0.35105163  0.96738273    -0.80100
O661        O  0.46215805  0.45886099  0.98433988    -0.83400
O662        O  0.39476358  0.46314631  0.98363301    -2.18100
O663        O  0.35711198  0.03449734  0.91453810    -0.66800
O664        O  0.31768398  0.99521262  0.90410153    -0.51400
C665        C  0.33256530  0.02210915  0.89578789     0.71900
O666        O  0.48442222  0.42367936  0.85103287    -0.59700
O667        O  0.02375200  0.44244748  0.88474717    -0.51700
C668        C  0.01296470  0.42812969  0.85651460     0.73800
O669        O  0.36773865  0.44072680  0.86246187    -0.71100
O670        O  0.32834304  0.43383065  0.90067394    -0.49800
C671        C  0.34314529  0.42322813  0.87333683     0.75100
O672        O  0.47776270  0.05003134  0.89546463    -0.66500
O673        O  0.02415773  0.51594386  0.91273593    -0.53700
C674        C  0.01910271  0.04118668  0.90331313     0.73500
Zr675      Zr  0.41995761  0.02812420  0.90498161     2.77500
O676        O  0.41298629  0.04010154  0.84647180    -0.97200
O677        O  0.41711099  0.08900753  0.91800803    -0.78000
Zr678      Zr  0.42792246  0.43161367  0.87541918     2.70100
O679        O  0.42540669  0.42795059  0.81463238    -0.79300
O680        O  0.41960686  0.37079970  0.86495663    -0.98400
Zr681      Zr  0.49752710  0.46675537  0.93635127     2.21500
Zr682      Zr  0.36136012  0.47635124  0.93438777     2.11100
O683        O  0.39932518  0.48365816  0.88634145    -2.47000
O684        O  0.46565038  0.47844543  0.88772701    -0.79100
O685        O  0.38738875  0.01222980  0.95177511    -0.69700
O686        O  0.46063807  0.41892825  0.92261912    -2.32200
O687        O  0.45566834  0.01602260  0.95076733    -2.28400
O688        O  0.39271868  0.42395664  0.92276119    -0.73000
H689        H  0.38658526  0.44272464  0.50511254     0.79000
H690        H  0.47385476  0.39881938  0.91643660     0.80100
H691        H  0.39047921  0.49080476  0.86547444     0.82300
H692        H  0.46954164  0.03560277  0.95781534     0.79900
H693        H  0.43041479  0.34345687  0.94561651     0.42900
H694        H  0.43716454  0.36401073  0.84760300     0.41900
H695        H  0.41949672  0.45115706  0.80904313     0.41600
H696        H  0.42889941  0.05933548  0.84317891     0.39500
H697        H  0.42299975  0.09904143  0.89664353     0.42600
H698        H  0.43004798  0.07094788  0.99944017     0.37400
H699        H  0.42495667  0.47330769  0.56169932     0.43500
H700        H  0.42381456  0.41028030  0.53974654     0.40000
H701        H  0.42388656  0.02066767  0.83361650     0.44900
H702        H  0.43637510  0.06347629  0.54248558     0.43600
H703        H  0.44693573  0.37801153  0.53197739     0.43700
H704        H  0.42776203  0.36092677  0.88550757     0.44100
C705        C  0.34264156  0.32301612  0.82606233    -0.04800
C706        C  0.33571835  0.32793830  0.86078660    -0.01900
C707        C  0.33006804  0.36083407  0.87535209     0.03100
C708        C  0.33766749  0.38905800  0.85665599    -0.04800
C709        C  0.35001468  0.38338416  0.82324564    -0.01900
C710        C  0.35718572  0.35046801  0.81011494     0.03100
C711        C  0.33915300  0.30003577  0.88208694     0.37700
C712        C  0.35165151  0.41091951  0.80107789     0.37700
C713        C  0.37519331  0.34502728  0.77823340     0.36100
C714        C  0.31334972  0.36474635  0.90793484     0.36100
N715        N  0.39034320  0.34081497  0.75317593    -0.38700
N716        N  0.29837005  0.36683743  0.93320700    -0.38700
N717        N  0.35231949  0.43286172  0.78340360    -0.38100
N718        N  0.34212434  0.27782708  0.89916543    -0.38200
C719        C  0.08417113  0.32775875  0.51538173    -0.04800
C720        C  0.06284771  0.35245112  0.53346197    -0.01900
C721        C  0.04478483  0.37638827  0.51657997     0.03100
C722        C  0.04603947  0.37869620  0.98353092    -0.04800
C723        C  0.06235740  0.35162784  0.96532423    -0.01900
C724        C  0.08301619  0.32906843  0.98213609     0.03100
C725        C  0.05873152  0.35360471  0.56986449     0.37700
C726        C  0.05694251  0.34641712  0.92940186     0.37700
C727        C  0.09646492  0.29981974  0.96259727     0.36100
C728        C  0.02546499  0.40285784  0.53561645     0.36100
N729        N  0.10667297  0.27678029  0.94605836    -0.38700
N730        N  0.01023174  0.42384963  0.55087319    -0.38700
N731        N  0.05284032  0.34191140  0.90077956    -0.38100
N732        N  0.05579875  0.35483164  0.59879099    -0.38200
C733        C  0.32410122  0.05499621  0.79558489    -0.04800
C734        C  0.31590670  0.02130559  0.80155008    -0.01900
C735        C  0.31511208  0.01132186  0.83469008     0.03100
C736        C  0.32731521  0.03370417  0.86159877    -0.04800
C737        C  0.33909700  0.06616003  0.85471261    -0.01900
C738        C  0.34103566  0.07539591  0.82154121     0.03100
C739        C  0.31042057  0.99628981  0.77385308     0.37700
C740        C  0.34412458  0.09188604  0.88203535     0.37700
C741        C  0.35508089  0.10866693  0.81559594     0.36100
C742        C  0.28236904  0.51054051  0.85507359     0.36100
N743        N  0.36604521  0.13533866  0.81136561    -0.38700
N744        N  0.26104932  0.50113171  0.87281852    -0.38700
N745        N  0.34686290  0.11248746  0.90387935    -0.38100
N746        N  0.30630977  0.97600068  0.75192756    -0.38200
C747        C  0.33924145  0.39785363  0.52571538    -0.04800
C748        C  0.36109496  0.37978856  0.54626688    -0.01900
C749        C  0.36089046  0.38777864  0.58088339     0.03100
C750        C  0.33079622  0.40180005  0.59613254    -0.04800
C751        C  0.31303996  0.42467494  0.57723805    -0.01900
C752        C  0.31565664  0.42166509  0.54194436     0.03100
C753        C  0.38124008  0.35101609  0.53324198     0.37700
C754        C  0.29080168  0.45002045  0.59393913     0.37700
C755        C  0.29214549  0.44162798  0.52340413     0.36100
C756        C  0.39105660  0.38120871  0.60054660     0.36100
N757        N  0.27295203  0.45758134  0.50915042    -0.38700
N758        N  0.41536100  0.37617637  0.61611848    -0.38700
N759        N  0.27297062  0.47042880  0.60691659    -0.38100
N760        N  0.35071183  0.32802640  0.97568114    -0.38200
C761        C  0.08231477  0.11214278  0.85527055    -0.04800
C762        C  0.06442510  0.08501655  0.83697246    -0.01900
C763        C  0.04826091  0.05942310  0.85374551     0.03100
C764        C  0.04525386  0.06246132  0.88872912    -0.04800
C765        C  0.05926730  0.09064229  0.90733457    -0.01900
C766        C  0.07799094  0.11554274  0.89084129     0.03100
C767        C  0.06181770  0.08308724  0.80050675     0.37700
C768        C  0.05243781  0.09489451  0.94320972     0.37700
C769        C  0.08841571  0.14586813  0.91061591     0.36100
C770        C  0.03280029  0.03048103  0.83471776     0.36100
N771        N  0.09594466  0.16978153  0.92738449    -0.38700
N772        N  0.01017360  0.51362496  0.81399039    -0.38700
N773        N  0.04662659  0.09841060  0.97170908    -0.38100
N774        N  0.05987672  0.08117707  0.77154198    -0.38200
C775        C  0.34401971  0.05940698  0.51881139    -0.04800
C776        C  0.35345280  0.06363282  0.55319602    -0.01900
C777        C  0.35861671  0.09618838  0.56843639     0.03100
C778        C  0.34667150  0.12409518  0.55208684    -0.04800
C779        C  0.34510624  0.12083169  0.51690284    -0.01900
C780        C  0.30889508  0.06642874  0.00505005     0.03100
C781        C  0.35516907  0.03513015  0.57403055     0.37700
C782        C  0.27033568  0.11382146  0.01242501     0.37700
C783        C  0.29076374  0.05680452  0.97400260     0.36100
C784        C  0.37169801  0.10078085  0.60238989     0.36100
N785        N  0.27581638  0.04973537  0.94950507    -0.38700
N786        N  0.38268651  0.10430636  0.62925664    -0.38700
N787        N  0.24391968  0.12502222  0.00562079    -0.38100
N788        N  0.35630859  0.01282274  0.59117429    -0.38200
C789        C  0.06921747  0.36014769  0.78795367    -0.04800
C790        C  0.08644348  0.37524390  0.81713807    -0.01900
C791        C  0.06953418  0.39937457  0.83920733     0.03100
C792        C  0.03716793  0.41199287  0.83063398    -0.04800
C793        C  0.02517701  0.40418395  0.79744317    -0.01900
C794        C  0.04035612  0.37794181  0.77667410     0.03100
C795        C  0.12289987  0.36936957  0.82304654     0.37700
C796        C  0.99880658  0.42491590  0.78351963     0.37700
C797        C  0.02811751  0.37200376  0.74250116     0.36100
C798        C  0.08653863  0.41248891  0.86968811     0.36100
N799        N  0.01841870  0.36778032  0.71519476    -0.38700
N800        N  0.10038701  0.42324248  0.89373279    -0.38700
N801        N  0.48349482  0.44418470  0.77375356    -0.38100
N802        N  0.15201530  0.36506544  0.82772322    -0.38200
C803        C  0.07346648  0.07229452  0.58580003    -0.04800
C804        C  0.04395486  0.05548064  0.59813242    -0.01900
C805        C  0.02628315  0.03071823  0.57731092     0.03100
C806        C  0.03734807  0.02306285  0.54354308    -0.04800
C807        C  0.07095324  0.03358435  0.53458259    -0.01900
C808        C  0.08975019  0.05621099  0.55660794     0.03100
C809        C  0.03362845  0.06103548  0.63311321     0.37700
C810        C  0.08631975  0.03081615  0.99647548     0.37700
C811        C  0.12669813  0.05986799  0.55055904     0.36100
C812        C  0.50245696  0.01028742  0.58614682     0.36100
N813        N  0.15618021  0.06249146  0.54579504    -0.38700
N814        N  0.48245932  0.99287617  0.59829513    -0.38700
N815        N  0.09877566  0.02307339  0.97062893    -0.38100
N816        N  0.02574300  0.06509566  0.66112717    -0.38200
C817        C  0.08824373  0.60319389  0.10748007     0.87000
C818        C  0.11112014  0.62657874  0.08691956    -0.53200
C819        C  0.13299763  0.64743885  0.10470235     0.09900
C820        C  0.12676133  0.64527103  0.14383080     0.20900
C821        C  0.11284823  0.58549810  0.13063571    -0.54000
C822        C  0.13469714  0.60571492  0.14917197     0.10000
C823        C  0.06646722  0.62935687  0.13031164    -0.53500
C824        C  0.08515867  0.65290495  0.14978359     0.10600
H825        H  0.11004114  0.62689725  0.05980585     0.15100
H826        H  0.14351558  0.66317852  0.15901599     0.00900
H827        H  0.11470897  0.55812769  0.12999639     0.15400
H828        H  0.03856700  0.63126689  0.12845933     0.15200
C829        C  0.06741306  0.75380784  0.20107189     0.30500
C830        C  0.06806615  0.68752690  0.16868485     0.30500
C831        C  0.08273217  0.72521102  0.21984756    -0.05700
C832        C  0.02883738  0.73725182  0.19307677    -0.06500
C833        C  0.08329220  0.74908252  0.16607433    -0.06300
C834        C  0.08215423  0.69238254  0.20432073    -0.05700
C835        C  0.02908226  0.70368530  0.17589125    -0.06500
C836        C  0.08410426  0.71636585  0.15049701    -0.06300
C837        C  0.07848265  0.67113072  0.23020055    -0.31700
N838        N  0.08089300  0.68883154  0.26024272     0.14800
C839        C  0.08157562  0.72182606  0.25399849    -0.31700
H840        H  0.07744196  0.74224500  0.27285158     0.16700
C841        C  0.49321222  0.69599446  0.17237402    -0.30700
N842        N  0.47158988  0.72154819  0.18628506     0.13500
C843        C  0.49456857  0.74651140  0.19891614    -0.30700
C844        C  0.08359837  0.71980431  0.11647537    -0.31000
N845        N  0.08385496  0.75279669  0.11041628     0.14000
H846        H  0.07883851  0.69939980  0.09769561     0.16600
C847        C  0.08113720  0.77046366  0.14038443    -0.31000
H848        H  0.07252231  0.79628593  0.14305278     0.16600
H849        H  0.48619060  0.77026377  0.21125491     0.16600
H850        H  0.07022836  0.64498238  0.22747776     0.16700
H851        H  0.48345404  0.67251462  0.16043990     0.16600
C852        C  0.08571412  0.83630211  0.26434154     0.87000
C853        C  0.10793128  0.81105852  0.28234538    -0.53200
C854        C  0.12970578  0.79144698  0.26261755     0.09900
C855        C  0.12452388  0.79736345  0.22460923     0.20900
C856        C  0.11064339  0.85612744  0.24270391    -0.54000
C857        C  0.13231589  0.83771081  0.22252030     0.10000
C858        C  0.06411694  0.81147694  0.23988990    -0.53500
C859        C  0.08319963  0.78917342  0.21915278     0.10600
H860        H  0.10570477  0.80790942  0.30903826     0.15100
H861        H  0.14164589  0.78099794  0.20810118     0.00900
H862        H  0.11275352  0.88356035  0.24537249     0.15400
H863        H  0.03625083  0.80871499  0.24225656     0.15200
C864        C  0.16665692  0.58946896  0.16799519     0.30500
C865        C  0.22493903  0.57512660  0.20397963     0.30500
C866        C  0.16837633  0.60492520  0.20329171    -0.05700
C867        C  0.17364511  0.54844010  0.17456852    -0.06500
C868        C  0.20222616  0.60170416  0.15422523    -0.06300
C869        C  0.19666639  0.59667737  0.22178404    -0.05700
C870        C  0.20408237  0.54320210  0.19342712    -0.06500
C871        C  0.23113605  0.59048303  0.17008261    -0.06300
C872        C  0.18618597  0.60001945  0.25482360    -0.31700
N873        N  0.15489084  0.61492695  0.25671900     0.14800
C874        C  0.14320275  0.61616088  0.22522230    -0.31700
H875        H  0.11725454  0.62083943  0.21845822     0.16700
C876        C  0.20773715  0.50932520  0.19941331    -0.30700
N877        N  0.17646320  0.99009424  0.18409544     0.13500
C878        C  0.16041870  0.51371919  0.17030867    -0.30700
C879        C  0.25986554  0.60590519  0.15698249    -0.31000
N880        N  0.25011825  0.63152092  0.13844936     0.14000
H881        H  0.28609906  0.59865632  0.16146531     0.16600
C882        C  0.21473740  0.63094583  0.14008760    -0.31000
H883        H  0.19911131  0.65242647  0.13616984     0.16600
H884        H  0.13302332  0.00699555  0.15475984     0.16600
H885        H  0.19965175  0.59021925  0.27553705     0.16700
H886        H  0.22431762  0.99696670  0.21058783     0.16600
C887        C  0.32053362  0.65005891  0.07287730     0.87000
C888        C  0.29533486  0.62976153  0.09477770    -0.53200
C889        C  0.27327392  0.64837289  0.11508220     0.09900
C890        C  0.27858957  0.68688818  0.11061156     0.20900
C891        C  0.29569963  0.67061796  0.05228179    -0.54000
C892        C  0.27230427  0.68925117  0.07024832     0.10000
C893        C  0.34000085  0.67469997  0.09760960    -0.53500
C894        C  0.31973187  0.69281622  0.11984221     0.10600
H895        H  0.29480635  0.60231366  0.09422812     0.15100
H896        H  0.26073586  0.70275690  0.12682190     0.00900
H897        H  0.29306877  0.66748712  0.02533756     0.15400
H898        H  0.36792294  0.67407271  0.10033174     0.15200
C899        C  0.10032849  0.63682694  0.33428284     0.87000
C900        C  0.12257972  0.61416839  0.30947056    -0.53200
C901        C  0.13890751  0.63124893  0.28590555     0.09900
C902        C  0.13489198  0.66959749  0.29070014     0.20900
C903        C  0.12810436  0.66162299  0.35058532    -0.54000
C904        C  0.14613656  0.67909305  0.32766670     0.10000
C905        C  0.07781269  0.65862177  0.31218713    -0.53500
C906        C  0.09606115  0.67529752  0.28922325     0.10600
H907        H  0.12356900  0.58674574  0.30917822     0.15100
H908        H  0.14937843  0.68285689  0.27126285     0.00900
H909        H  0.13610496  0.66261721  0.37636550     0.15400
H910        H  0.04969171  0.65828107  0.31267824     0.15200
C911        C  0.33552266  0.70804328  0.15514889     0.30500
C912        C  0.33536975  0.73771442  0.22090355     0.30500
C913        C  0.32039293  0.68730148  0.18265677    -0.05700
C914        C  0.37441268  0.71551974  0.17061588    -0.06500
C915        C  0.31999462  0.74255077  0.16116469    -0.06300
C916        C  0.32137379  0.70172507  0.21556642    -0.05700
C917        C  0.37451059  0.73145593  0.20433412    -0.06500
C918        C  0.31943374  0.75704752  0.19372451    -0.06300
C919        C  0.32713960  0.67514320  0.23546229    -0.31700
N920        N  0.32581929  0.64525641  0.21711603     0.14800
C921        C  0.32349063  0.65283014  0.18480922    -0.31700
H922        H  0.32761240  0.63482640  0.16373367     0.16700
C923        C  0.41087922  0.73533048  0.21253396    -0.30700
N924        N  0.43294608  0.72236136  0.18686686     0.13500
C925        C  0.41037726  0.71024662  0.16171051    -0.30700
C926        C  0.32036038  0.79148078  0.19142741    -0.31000
N927        N  0.32028241  0.79834011  0.15901077     0.14000
H928        H  0.32486476  0.80998264  0.21203445     0.16600
C929        C  0.32259137  0.76879796  0.14065687    -0.31000
H930        H  0.33128693  0.76688776  0.11494035     0.16600
H931        H  0.41915555  0.69831395  0.13800075     0.16600
H932        H  0.33383026  0.67747535  0.26174846     0.16700
H933        H  0.42020904  0.74634011  0.23632722     0.16600
C934        C  0.30607609  0.87402640  0.10981785     0.87000
C935        C  0.28829525  0.84867735  0.08375166    -0.53200
C936        C  0.26902191  0.82465728  0.09724553     0.09900
C937        C  0.26793163  0.82789039  0.13532873     0.20900
C938        C  0.27550315  0.88893423  0.13188803    -0.54000
C939        C  0.25522473  0.86446953  0.14506793     0.10000
C940        C  0.32540575  0.85230652  0.13407031    -0.53500
C941        C  0.30571931  0.82755267  0.14598751     0.10600
H942        H  0.29156845  0.84891034  0.05676944     0.15100
H943        H  0.25234100  0.80737822  0.14589437     0.00900
H944        H  0.27084942  0.91543010  0.13765076     0.15400
H945        H  0.35223802  0.85533712  0.14116616     0.15200
C946        C  0.29978596  0.57386276  0.27089861     0.87000
C947        C  0.27768962  0.60073677  0.29058472    -0.53200
C948        C  0.26352535  0.62328996  0.27173566     0.09900
C949        C  0.26976446  0.61663339  0.23431494     0.20900
C950        C  0.27274735  0.55699977  0.24558571    -0.54000
C951        C  0.25710474  0.57978255  0.22619986     0.10000
C952        C  0.32495220  0.59370040  0.24864686    -0.53500
C953        C  0.30888647  0.61640767  0.23005502     0.10600
H954        H  0.27446710  0.60278340  0.31772446     0.15100
H955        H  0.25708433  0.63605491  0.21995228     0.00900
H956        H  0.26369541  0.53131543  0.24519792     0.15400
H957        H  0.35294903  0.59233275  0.25007721     0.15200
C958        C  0.16392621  0.85594801  0.20439728     0.30500
C959        C  0.22259397  0.86856808  0.16692492     0.30500
C960        C  0.16575986  0.83949957  0.16884993    -0.05700
C961        C  0.17080058  0.89613850  0.19636512    -0.06500
C962        C  0.19951402  0.84604220  0.21909779    -0.06300
C963        C  0.19482624  0.84663466  0.15004822    -0.05700
C964        C  0.20153400  0.90107384  0.17713952    -0.06500
C965        C  0.22818877  0.85248781  0.19998141    -0.06300
C966        C  0.18554812  0.84371002  0.11701977    -0.31700
N967        N  0.15306022  0.83159781  0.11470750     0.14800
C968        C  0.14015765  0.83103059  0.14619891    -0.31700
H969        H  0.11331286  0.82928731  0.15247039     0.16700
C970        C  0.20359711  0.93470907  0.16884827    -0.30700
N971        N  0.17617763  0.95302908  0.18165238     0.13500
C972        C  0.15637625  0.93002381  0.19908453    -0.30700
C973        C  0.25638179  0.83797459  0.21400657    -0.31000
N974        N  0.24649952  0.82004979  0.24016969     0.14000
H975        H  0.28250617  0.84257188  0.20652382     0.16600
C976        C  0.21233331  0.82882728  0.24568188    -0.31000
H977        H  0.19793456  0.82563682  0.26842063     0.16600
H978        H  0.13319316  0.93706323  0.21319585     0.16600
H979        H  0.20032915  0.85331328  0.09671392     0.16700
H980        H  0.22430504  0.94556095  0.15465978     0.16600
C981        C  0.10261306  0.80473768  0.03627492     0.87000
C982        C  0.12207087  0.82939547  0.06158043    -0.53200
C983        C  0.13882220  0.81392142  0.08552993     0.09900
C984        C  0.13784863  0.77547098  0.08091111     0.20900
C985        C  0.13253132  0.78218903  0.02077777    -0.54000
C986        C  0.15086760  0.76648985  0.04430214     0.10000
C987        C  0.08099157  0.78099932  0.05775719    -0.53500
C988        C  0.09942053  0.76653526  0.08149140     0.10600
H989        H  0.12080905  0.85680871  0.06185671     0.15100
H990        H  0.15251749  0.76362474  0.10075364     0.00900
H991        H  0.14087801  0.78074705  0.99500593     0.15400
H992        H  0.05298429  0.77865604  0.05651183     0.15200
C993        C  0.31713112  0.79849517  0.30236703     0.87000
C994        C  0.29276180  0.81945999  0.28132910    -0.53200
C995        C  0.27077657  0.80183004  0.26086632     0.09900
C996        C  0.27641183  0.76245542  0.26271448     0.20900
C997        C  0.29130324  0.77638305  0.32152264    -0.54000
C998        C  0.26860763  0.75791923  0.30202818     0.10000
C999        C  0.33735610  0.77421666  0.27748016    -0.53500
C1000       C  0.31792864  0.75559932  0.25491510     0.10600
H1001       H  0.29201751  0.84694712  0.28330460     0.15100
H1002       H  0.25916243  0.74714745  0.24547207     0.00900
H1003       H  0.28767202  0.77792062  0.34833659     0.15400
H1004       H  0.36543101  0.77428661  0.27589155     0.15200
C1005       C  0.18311929  0.74428877  0.03920709     0.30500
C1006       C  0.24091721  0.70623336  0.05139073     0.30500
C1007       C  0.17688391  0.71150653  0.05661906    -0.05700
C1008       C  0.20306272  0.73182947  0.00630867    -0.06500
C1009       C  0.21208922  0.76174914  0.05925074    -0.06300
C1010       C  0.20516858  0.69222164  0.06278464    -0.05700
C1011       C  0.23341795  0.71236434  0.01115601    -0.06500
C1012       C  0.24033087  0.74257108  0.06598690    -0.06300
C1013       C  0.19169158  0.66463335  0.07870753    -0.31700
N1014       N  0.15734085  0.66946571  0.08714679     0.14800
C1015       C  0.14808818  0.69648477  0.07026085    -0.31700
H1016       H  0.12211438  0.70382785  0.06562279     0.16700
C1017       C  0.24671903  0.70643182  0.47520711    -0.30700
N1018       N  0.22614024  0.72295569  0.45276632     0.13500
C1019       C  0.20017928  0.73735640  0.47201799    -0.30700
C1020       C  0.26597200  0.76453483  0.07696384    -0.31000
N1021       N  0.25400784  0.79647448  0.07791048     0.14000
H1022       H  0.29218707  0.75761437  0.08083315     0.16600
C1023       C  0.22195964  0.79508209  0.06462525    -0.31000
H1024       H  0.20767248  0.81636716  0.05687583     0.16600
H1025       H  0.17902635  0.75084487  0.46177538     0.16600
H1026       H  0.20578104  0.64166225  0.08129143     0.16700
H1027       H  0.26889417  0.69127570  0.46734039     0.16600
C1028       C  0.17823277  0.70192124  0.33329575     0.30500
C1029       C  0.23619376  0.73949957  0.31827300     0.30500
C1030       C  0.17175525  0.73628053  0.31874776    -0.05700
C1031       C  0.19961402  0.71256412  0.36482286    -0.06500
C1032       C  0.20641550  0.68507319  0.31111996    -0.06300
C1033       C  0.20057031  0.75309129  0.30717846    -0.05700
C1034       C  0.22989120  0.73218593  0.35875157    -0.06500
C1035       C  0.23417505  0.70444220  0.30238262    -0.06300
C1036       C  0.18790326  0.76657956  0.27816251    -0.31700
N1037       N  0.15252594  0.76725929  0.27795675     0.14800
C1038       C  0.14292217  0.74837118  0.30352933    -0.31700
H1039       H  0.11666871  0.74298633  0.31091912     0.16700
C1040       C  0.24451788  0.73638857  0.39222354    -0.30700
N1041       N  0.22498109  0.71986245  0.41603102     0.13500
C1042       C  0.19748140  0.70601836  0.39869382    -0.30700
C1043       C  0.25770674  0.68396597  0.28615976    -0.31000
N1044       N  0.24583622  0.65205092  0.28614393     0.14000
H1045       H  0.28278348  0.69169900  0.27843086     0.16600
C1046       C  0.21618995  0.65220886  0.30431391    -0.31000
H1047       H  0.20370513  0.63044890  0.31401585     0.16600
H1048       H  0.17664008  0.69244980  0.41020638     0.16600
H1049       H  0.20347304  0.77043949  0.25645296     0.16700
H1050       H  0.26763378  0.75095727  0.39849907     0.16600
O1051       O  0.48250538  0.51370341  0.52037757    -0.74800
O1052       O  0.02323290  0.99468265  0.48905051    -0.53700
C1053       C  0.01312349  0.50675331  0.51529778     0.79000
O1054       O  0.36119745  0.90069750  0.45871321    -0.59400
O1055       O  0.32230821  0.94056336  0.46767949    -0.52400
C1056       C  0.33687632  0.91426321  0.47724069     0.71000
O1057       O  0.48160870  0.88466091  0.46878553    -0.73900
O1058       O  0.02786257  0.92385000  0.45922920    -0.54500
C1059       C  0.01818490  0.89563132  0.47029226     0.77000
O1060       O  0.37118745  0.51041199  0.01003241    -0.59100
O1061       O  0.33067847  0.49733629  0.47966387    -0.52200
C1062       C  0.34301798  0.50824779  0.50804525     0.73600
Zr1063     Zr  0.42679803  0.50041285  0.49789881     2.54700
O1064       O  0.42695379  0.52749639  0.05507711    -0.79600
O1065       O  0.42036853  0.56163440  0.50487837    -0.93100
Zr1066     Zr  0.42444636  0.90823969  0.46409447     2.64700
O1067       O  0.43766933  0.89117856  0.02005262    -0.98000
O1068       O  0.41947129  0.84817133  0.44712076    -0.80100
O1069       O  0.46026590  0.95482950  0.48245347    -0.83400
O1070       O  0.39333759  0.95716582  0.48187281    -2.18100
O1071       O  0.35978984  0.53462047  0.41533037    -0.66800
O1072       O  0.32269098  0.49263834  0.40610288    -0.51400
C1073       C  0.33540913  0.52060968  0.39757520     0.71900
O1074       O  0.48318945  0.92649954  0.34854417    -0.59700
O1075       O  0.02381728  0.93974212  0.38886545    -0.51700
C1076       C  0.01342407  0.93408587  0.35831117     0.73800
O1077       O  0.36684282  0.94242409  0.35777877    -0.71100
O1078       O  0.32908177  0.93290851  0.39731964    -0.49800
C1079       C  0.34332150  0.92386181  0.36915266     0.75100
O1080       O  0.47812660  0.54985527  0.39607642    -0.66500
O1081       O  0.02837613  0.01328229  0.41518420    -0.53700
C1082       C  0.01147252  0.54569325  0.40513512     0.73500
Zr1083     Zr  0.42188595  0.52538516  0.40573622     2.77500
O1084       O  0.41231182  0.53979199  0.34833959    -0.97200
O1085       O  0.42089627  0.58600514  0.42049120    -0.78000
Zr1086     Zr  0.42711006  0.93699106  0.37214975     2.70100
O1087       O  0.42665686  0.94693810  0.31294205    -0.79300
O1088       O  0.42129405  0.87669777  0.35642841    -0.98400
Zr1089     Zr  0.49528656  0.96835647  0.43552978     2.21500
Zr1090     Zr  0.35911753  0.97419532  0.43484795     2.11100
O1091       O  0.39680448  0.98666583  0.38823864    -2.47000
O1092       O  0.46310376  0.98408709  0.38848244    -0.79100
O1093       O  0.38984615  0.51074115  0.45328595    -0.69700
O1094       O  0.45994377  0.92078051  0.41778008    -2.32200
O1095       O  0.45881654  0.51544818  0.45082328    -2.28400
O1096       O  0.39203670  0.92404998  0.41818991    -0.73000
H1097       H  0.38172539  0.94215980  0.00084573     0.79000
H1098       H  0.47376572  0.90148674  0.41016487     0.80100
H1099       H  0.38717353  0.99411844  0.36790251     0.82300
H1100       H  0.47241717  0.53539819  0.45721304     0.79900
H1101       H  0.43986637  0.84307662  0.43248148     0.42900
H1102       H  0.44497277  0.86764600  0.35819084     0.41900
H1103       H  0.43023879  0.97166619  0.31238537     0.41600
H1104       H  0.41827845  0.56416420  0.34846554     0.39500
H1105       H  0.43174711  0.58871425  0.44286950     0.42600
H1106       H  0.41970406  0.56688115  0.52945741     0.37400
H1107       H  0.41624213  0.95892012  0.05306132     0.43500
H1108       H  0.41749323  0.90017071  0.03303941     0.40000
H1109       H  0.43115724  0.52826251  0.33516258     0.44900
H1110       H  0.42120260  0.58122340  0.00896508     0.43600
H1111       H  0.43622455  0.86628724  0.02066599     0.43700
H1112       H  0.40840304  0.86745328  0.37531782     0.44100
C1113       C  0.34060266  0.82326209  0.32262870    -0.04800
C1114       C  0.33563458  0.82852862  0.35738710    -0.01900
C1115       C  0.33069626  0.86152157  0.37156787     0.03100
C1116       C  0.33879982  0.88950584  0.35255965    -0.04800
C1117       C  0.35101421  0.88333591  0.31904454    -0.01900
C1118       C  0.35513188  0.85003865  0.30537717     0.03100
C1119       C  0.33850326  0.80054102  0.37867003     0.37700
C1120       C  0.35575073  0.91087142  0.29715164     0.37700
C1121       C  0.36849680  0.84401056  0.27137553     0.36100
C1122       C  0.31375090  0.86557469  0.40400380     0.36100
N1123       N  0.37927815  0.83961618  0.24430331    -0.38700
N1124       N  0.29851001  0.86748929  0.42912341    -0.38700
N1125       N  0.35906486  0.93258954  0.27941713    -0.38100
N1126       N  0.34097518  0.77816565  0.39561751    -0.38200
C1127       C  0.07817759  0.82520986  0.01546672    -0.04800
C1128       C  0.05626601  0.84923256  0.03364832    -0.01900
C1129       C  0.03856403  0.87335274  0.01692744     0.03100
C1130       C  0.04404543  0.87493255  0.48485898    -0.04800
C1131       C  0.06088980  0.84872400  0.46581183    -0.01900
C1132       C  0.08156776  0.82564674  0.48198707     0.03100
C1133       C  0.05070515  0.84916523  0.06978443     0.37700
C1134       C  0.05551017  0.84470953  0.42979935     0.37700
C1135       C  0.09622312  0.79761210  0.46153368     0.36100
C1136       C  0.02134642  0.90125669  0.03594827     0.36100
N1137       N  0.10730583  0.77553753  0.44423215    -0.38700
N1138       N  0.00797415  0.92368045  0.05088762    -0.38700
N1139       N  0.05097401  0.84127949  0.40116601    -0.38100
N1140       N  0.04573966  0.84919594  0.09840699    -0.38200
C1141       C  0.31835842  0.55525700  0.29824313    -0.04800
C1142       C  0.31067003  0.52144196  0.30471308    -0.01900
C1143       C  0.31359845  0.51073764  0.33759040     0.03100
C1144       C  0.32711689  0.53293506  0.36400877    -0.04800
C1145       C  0.33730356  0.56588225  0.35670839    -0.01900
C1146       C  0.33618485  0.57570708  0.32364556     0.03100
C1147       C  0.30201181  0.49667929  0.27764784     0.37700
C1148       C  0.34552125  0.59124117  0.38362512     0.37700
C1149       C  0.34990360  0.60898262  0.31715703     0.36100
C1150       C  0.28581246  0.99900202  0.35073034     0.36100
N1151       N  0.36087979  0.63553985  0.31245212    -0.38700
N1152       N  0.26667350  0.98235295  0.36495421    -0.38700
N1153       N  0.35125141  0.61182350  0.40490133    -0.38100
N1154       N  0.29538105  0.47625686  0.25647536    -0.38200
C1155       C  0.33329153  0.89671587  0.01903297    -0.04800
C1156       C  0.35363786  0.87426560  0.03613667    -0.01900
C1157       C  0.35622940  0.87831131  0.07116967     0.03100
C1158       C  0.33003379  0.89651337  0.09001572    -0.04800
C1159       C  0.31343356  0.92216179  0.07369307    -0.01900
C1160       C  0.31270253  0.92082666  0.03838582     0.03100
C1161       C  0.36905966  0.84471308  0.01846033     0.37700
C1162       C  0.29704186  0.94991492  0.09319870     0.37700
C1163       C  0.28816384  0.94233221  0.02287352     0.36100
C1164       C  0.38270425  0.85941318  0.08707156     0.36100
N1165       N  0.26797433  0.95907690  0.01083550    -0.38700
N1166       N  0.40403591  0.84381751  0.09889437    -0.38700
N1167       N  0.28410228  0.97242652  0.10842822    -0.38100
N1168       N  0.35798371  0.82423431  0.47679587    -0.38200
C1169       C  0.07677513  0.61444733  0.35498087    -0.04800
C1170       C  0.05747731  0.58798817  0.33715387    -0.01900
C1171       C  0.03922985  0.56399775  0.35445793     0.03100
C1172       C  0.03625186  0.56786854  0.38944409    -0.04800
C1173       C  0.05207331  0.59544033  0.40752471    -0.01900
C1174       C  0.07209886  0.61901209  0.39044953     0.03100
C1175       C  0.05502774  0.58544186  0.30068527     0.37700
C1176       C  0.04698687  0.59992067  0.44361473     0.37700
C1177       C  0.08378533  0.64938595  0.40941915     0.36100
C1178       C  0.02281755  0.53519862  0.33603815     0.36100
N1179       N  0.09245000  0.67354052  0.42524125    -0.38700
N1180       N  0.01395336  0.01234462  0.31219856    -0.38700
N1181       N  0.04306788  0.60361607  0.47239139    -0.38100
N1182       N  0.05296054  0.58308420  0.27172907    -0.38200
C1183       C  0.34627514  0.56383239  0.01648968    -0.04800
C1184       C  0.35254262  0.56642374  0.05157723    -0.01900
C1185       C  0.35671675  0.59820569  0.06835211     0.03100
C1186       C  0.34497995  0.62649579  0.05275894    -0.04800
C1187       C  0.34605220  0.62538357  0.01757359    -0.01900
C1188       C  0.30971656  0.56229907  0.50836257     0.03100
C1189       C  0.35248823  0.53703761  0.07129682     0.37700
C1190       C  0.27678406  0.61351721  0.50756868     0.37700
C1191       C  0.28791812  0.54906952  0.48078126     0.36100
C1192       C  0.36901310  0.60158607  0.10264149     0.36100
N1193       N  0.27014564  0.53885636  0.45914387    -0.38700
N1194       N  0.37965101  0.60420431  0.12967761    -0.38700
N1195       N  0.25285086  0.62613846  0.49664073    -0.38100
N1196       N  0.35278859  0.51402200  0.08756621    -0.38200
C1197       C  0.06726765  0.86280720  0.28887429    -0.04800
C1198       C  0.08436827  0.87705730  0.31850381    -0.01900
C1199       C  0.06823124  0.90212241  0.34020912     0.03100
C1200       C  0.03576753  0.91515008  0.33210348    -0.04800
C1201       C  0.02365091  0.90757072  0.29887326    -0.01900
C1202       C  0.03892051  0.88147771  0.27773047     0.03100
C1203       C  0.12006889  0.86900411  0.32570628     0.37700
C1204       C  0.99832606  0.92910833  0.28452249     0.37700
C1205       C  0.02775786  0.87683639  0.24310219     0.36100
C1206       C  0.08696833  0.91693084  0.36907517     0.36100
N1207       N  0.01915916  0.87372767  0.21538004    -0.38700
N1208       N  0.10230281  0.92914000  0.39160824    -0.38700
N1209       N  0.48582436  0.94831174  0.27048488    -0.38100
N1210       N  0.14844885  0.86276265  0.33182836    -0.38200
C1211       C  0.06950672  0.57570569  0.08459120    -0.04800
C1212       C  0.03982452  0.55840435  0.09571985    -0.01900
C1213       C  0.02390132  0.53284795  0.07440369     0.03100
C1214       C  0.03496818  0.52684102  0.04028821    -0.04800
C1215       C  0.06703820  0.54067369  0.03106290    -0.01900
C1216       C  0.08589701  0.56129698  0.05468738     0.03100
C1217       C  0.02710143  0.56467884  0.12989611     0.37700
C1218       C  0.08549096  0.52559895  0.49885996     0.37700
C1219       C  0.12313702  0.56338257  0.04991941     0.36100
C1220       C  0.49499437  0.51143516  0.08862226     0.36100
N1221       N  0.15289644  0.56432725  0.04636531    -0.38700
N1222       N  0.47415838  0.49508984  0.10100035    -0.38700
N1223       N  0.09827557  0.51676649  0.47345462    -0.38100
N1224       N  0.01694780  0.56959721  0.15714971    -0.38200
C1225       C  0.08806406  0.60281459  0.60563667     0.87000
C1226       C  0.11086419  0.62637664  0.58551033    -0.53200
C1227       C  0.13320525  0.64638418  0.60346231     0.09900
C1228       C  0.12681454  0.64406637  0.64257133     0.20900
C1229       C  0.11228587  0.58466856  0.62868588    -0.54000
C1230       C  0.13383450  0.60445909  0.64776040     0.10000
C1231       C  0.06644286  0.62899090  0.62881601    -0.53500
C1232       C  0.08551935  0.65221731  0.64850494     0.10600
H1233       H  0.10916150  0.62776186  0.55854208     0.15100
H1234       H  0.14363758  0.66162975  0.65805132     0.00900
H1235       H  0.11399785  0.55726641  0.62777084     0.15400
H1236       H  0.03855498  0.63111871  0.62706300     0.15200
C1237       C  0.07150283  0.75300225  0.70103334     0.30500
C1238       C  0.06966071  0.68704075  0.66795484     0.30500
C1239       C  0.08680824  0.72395052  0.71884727    -0.05700
C1240       C  0.03221444  0.73737092  0.69386200    -0.06500
C1241       C  0.08626177  0.74836181  0.66561747    -0.06300
C1242       C  0.08515712  0.69131042  0.70306778    -0.05700
C1243       C  0.03128210  0.70398890  0.67633314    -0.06500
C1244       C  0.08582762  0.71577468  0.64962287    -0.06300
C1245       C  0.08259731  0.66988732  0.72883498    -0.31700
N1246       N  0.08631958  0.68747369  0.75880616     0.14800
C1247       C  0.08698289  0.72045152  0.75289571    -0.31700
H1248       H  0.08359003  0.74074324  0.77201751     0.16700
C1249       C  0.49589774  0.69410463  0.66938907    -0.30700
N1250       N  0.47347271  0.71891196  0.68314575     0.13500
C1251       C  0.49546659  0.74400012  0.69730188    -0.30700
C1252       C  0.08456049  0.71971923  0.61572405    -0.31000
N1253       N  0.08544026  0.75284351  0.61013818     0.14000
H1254       H  0.07902252  0.69967470  0.59676152     0.16600
C1255       C  0.08384065  0.77013989  0.64034289    -0.31000
H1256       H  0.07631486  0.79630762  0.64351524     0.16600
H1257       H  0.48618156  0.76723728  0.71000798     0.16600
H1258       H  0.07299598  0.64426014  0.72629260     0.16700
H1259       H  0.48698905  0.67072795  0.65656773     0.16600
C1260       C  0.09195002  0.83345646  0.76579914     0.87000
C1261       C  0.11425077  0.80763008  0.78315421    -0.53200
C1262       C  0.13581642  0.78821333  0.76290684     0.09900
C1263       C  0.13022956  0.79510831  0.72508935     0.20900
C1264       C  0.11694373  0.85369795  0.74464351    -0.54000
C1265       C  0.13846527  0.83556377  0.72405566     0.10000
C1266       C  0.07006471  0.80943786  0.74103048    -0.53500
C1267       C  0.08861923  0.78758131  0.71959643     0.10600
H1268       H  0.11205039  0.80368564  0.80967270     0.15100
H1269       H  0.14704929  0.77896453  0.70805834     0.00900
H1270       H  0.11925808  0.88109138  0.74795993     0.15400
H1271       H  0.04220576  0.80677849  0.74361215     0.15200
C1272       C  0.16505412  0.58769089  0.66659883     0.30500
C1273       C  0.22312705  0.57289208  0.70198971     0.30500
C1274       C  0.16642828  0.60217903  0.70231022    -0.05700
C1275       C  0.17183924  0.54659524  0.67227899    -0.06500
C1276       C  0.20049671  0.60050269  0.65320882    -0.06300
C1277       C  0.19526383  0.59416625  0.72028937    -0.05700
C1278       C  0.20218872  0.54096413  0.69094431    -0.06500
C1279       C  0.22932444  0.58935587  0.66897365    -0.06300
C1280       C  0.18576538  0.59649218  0.75343642    -0.31700
N1281       N  0.15352476  0.60885148  0.75620666     0.14800
C1282       C  0.14083762  0.61015527  0.72507116    -0.31700
H1283       H  0.11411143  0.61197015  0.71916863     0.16700
C1284       C  0.20448747  0.50709724  0.69785083    -0.30700
N1285       N  0.18421004  0.98879276  0.68696942     0.13500
C1286       C  0.15757568  0.51226101  0.66845151    -0.30700
C1287       C  0.25776672  0.60593877  0.65714522    -0.31000
N1288       N  0.24794988  0.63184531  0.63900503     0.14000
H1289       H  0.28384633  0.59771977  0.66053142     0.16600
C1290       C  0.21264776  0.63018898  0.63965859    -0.31000
H1291       H  0.19681170  0.65129278  0.63515169     0.16600
H1292       H  0.14015697  0.00491217  0.65800199     0.16600
H1293       H  0.20021283  0.58676202  0.77350972     0.16700
H1294       H  0.23284772  0.99670557  0.71223527     0.16600
C1295       C  0.31525109  0.64165807  0.56935445     0.87000
C1296       C  0.28880854  0.62541957  0.59269958    -0.53200
C1297       C  0.27033598  0.64633032  0.61359486     0.09900
C1298       C  0.27934208  0.68385914  0.60801716     0.20900
C1299       C  0.29608449  0.66763102  0.54987337    -0.54000
C1300       C  0.27286308  0.68617067  0.56783725     0.10000
C1301       C  0.33870791  0.66457058  0.59365250    -0.53500
C1302       C  0.32106025  0.68670013  0.61564015     0.10600
H1303       H  0.28537373  0.59814733  0.59323838     0.15100
H1304       H  0.26340777  0.70152340  0.62438095     0.00900
H1305       H  0.29938949  0.67015098  0.52318964     0.15400
H1306       H  0.36659296  0.66268825  0.59467965     0.15200
C1307       C  0.10111229  0.63556829  0.83343508     0.87000
C1308       C  0.12143429  0.61105648  0.80878101    -0.53200
C1309       C  0.13941021  0.62655681  0.78535199     0.09900
C1310       C  0.13862847  0.66497658  0.78967716     0.20900
C1311       C  0.13058959  0.65823327  0.84973494    -0.54000
C1312       C  0.15017083  0.67390424  0.82660421     0.10000
C1313       C  0.08072760  0.65919961  0.81146037    -0.53500
C1314       C  0.10038245  0.67364034  0.78805368     0.10600
H1315       H  0.11975528  0.58362220  0.80832595     0.15100
H1316       H  0.15433733  0.67684107  0.77013370     0.00900
H1317       H  0.13792308  0.65969643  0.87568223     0.15400
H1318       H  0.05271833  0.66145365  0.81214144     0.15200
C1319       C  0.33802508  0.70369016  0.65022074     0.30500
C1320       C  0.33748291  0.73335760  0.71632383     0.30500
C1321       C  0.32132427  0.68409941  0.67767096    -0.05700
C1322       C  0.37671878  0.70986400  0.66658592    -0.06500
C1323       C  0.32432744  0.73963234  0.65613100    -0.06300
C1324       C  0.32124670  0.69883876  0.71035410    -0.05700
C1325       C  0.37648053  0.72579648  0.70035241    -0.06500
C1326       C  0.32322838  0.75377264  0.68918067    -0.06300
C1327       C  0.32297543  0.67277448  0.73107757    -0.31700
N1328       N  0.32109646  0.64299149  0.71298504     0.14800
C1329       C  0.32213345  0.64961764  0.68040423    -0.31700
H1330       H  0.32738569  0.63097803  0.66001396     0.16700
C1331       C  0.41250816  0.73086318  0.70870265    -0.30700
N1332       N  0.43490849  0.71847201  0.68321911     0.13500
C1333       C  0.41286100  0.70568986  0.65785279    -0.30700
C1334       C  0.32739785  0.78806220  0.68786190    -0.31000
N1335       N  0.32984343  0.79605693  0.65585959     0.14000
H1336       H  0.33265078  0.80559322  0.70917676     0.16600
C1337       C  0.33059685  0.76661113  0.63675552    -0.31000
H1338       H  0.33850039  0.76492190  0.61067343     0.16600
H1339       H  0.42209558  0.69457824  0.63395148     0.16600
H1340       H  0.33154758  0.67514023  0.75664391     0.16700
H1341       H  0.42144607  0.74279048  0.73225657     0.16600
C1342       C  0.30751044  0.86867626  0.60514747     0.87000
C1343       C  0.28670979  0.84198256  0.58353977    -0.53200
C1344       C  0.27064158  0.81892725  0.60095519     0.09900
C1345       C  0.27441218  0.82461829  0.63863923     0.20900
C1346       C  0.27907432  0.88477227  0.62940456    -0.54000
C1347       C  0.26173696  0.86139322  0.64712349     0.10000
C1348       C  0.33074695  0.84894834  0.62804097    -0.53500
C1349       C  0.31339126  0.82516267  0.64436891     0.10600
H1350       H  0.28550180  0.84063943  0.55629820     0.15100
H1351       H  0.26064782  0.80474974  0.65204587     0.00900
H1352       H  0.27115765  0.91067955  0.63110614     0.15400
H1353       H  0.35875633  0.85120694  0.62876085     0.15200
C1354       C  0.30394039  0.56417710  0.75915734     0.87000
C1355       C  0.28640725  0.58833055  0.78657630    -0.53200
C1356       C  0.26780951  0.61328126  0.77433838     0.09900
C1357       C  0.26799560  0.61231381  0.73608602     0.20900
C1358       C  0.27447789  0.55106928  0.73564356    -0.54000
C1359       C  0.25520013  0.57626539  0.72389252     0.10000
C1360       C  0.32524972  0.58830529  0.73764980    -0.53500
C1361       C  0.30617787  0.61347242  0.72614111     0.10600
H1362       H  0.28984193  0.58691321  0.81335882     0.15100
H1363       H  0.25306778  0.63344023  0.72653132     0.00900
H1364       H  0.27038571  0.52469420  0.72820460     0.15400
H1365       H  0.35279013  0.58764421  0.73306016     0.15200
C1366       C  0.17036185  0.85395132  0.70647792     0.30500
C1367       C  0.22925790  0.86622325  0.66919960     0.30500
C1368       C  0.17234326  0.83731097  0.67109413    -0.05700
C1369       C  0.17752887  0.89424780  0.69840444    -0.06500
C1370       C  0.20583193  0.84397416  0.72149912    -0.06300
C1371       C  0.20118094  0.84456165  0.65222117    -0.05700
C1372       C  0.20851390  0.89903379  0.67945940    -0.06500
C1373       C  0.23470325  0.85018909  0.70246618    -0.06300
C1374       C  0.19131281  0.84169108  0.61924407    -0.31700
N1375       N  0.15918261  0.82836052  0.61718545     0.14800
C1376       C  0.14676304  0.82765372  0.64880303    -0.31700
H1377       H  0.12018671  0.82469568  0.65549049     0.16700
C1378       C  0.21154747  0.93304760  0.67225661    -0.30700
N1379       N  0.18414033  0.95160635  0.68482957     0.13500
C1380       C  0.16357660  0.92843130  0.70136447    -0.30700
C1381       C  0.26260689  0.83475688  0.71631567    -0.31000
N1382       N  0.25230039  0.81697186  0.74245558     0.14000
H1383       H  0.28876983  0.83754109  0.70799406     0.16600
C1384       C  0.21819800  0.82609408  0.74789774    -0.31000
H1385       H  0.20327685  0.82179910  0.77010500     0.16600
H1386       H  0.14021361  0.93553858  0.71514850     0.16600
H1387       H  0.20554590  0.85183656  0.59884357     0.16700
H1388       H  0.23294196  0.94396159  0.65905837     0.16600
C1389       C  0.10729385  0.80646297  0.53815061     0.87000
C1390       C  0.12767578  0.82938321  0.56434000    -0.53200
C1391       C  0.14358060  0.81226624  0.58771282     0.09900
C1392       C  0.14061524  0.77389595  0.58166292     0.20900
C1393       C  0.13613778  0.78323813  0.52199651    -0.54000
C1394       C  0.15323756  0.76561721  0.54481629     0.10000
C1395       C  0.08436497  0.78289886  0.55860741    -0.53500
C1396       C  0.10186095  0.76663693  0.58173314     0.10600
H1397       H  0.12779718  0.85686844  0.56546046     0.15100
H1398       H  0.15455997  0.76056309  0.60098580     0.00900
H1399       H  0.14510414  0.78304752  0.49648876     0.15400
H1400       H  0.05629875  0.78189954  0.55720966     0.15200
C1401       C  0.32347980  0.78904065  0.80176945     0.87000
C1402       C  0.29892147  0.81238741  0.78316855    -0.53200
C1403       C  0.27587575  0.79676283  0.76214778     0.09900
C1404       C  0.28048333  0.75705088  0.76124549     0.20900
C1405       C  0.29801877  0.76604221  0.82002618    -0.54000
C1406       C  0.27397040  0.74986124  0.80042361     0.10000
C1407       C  0.34211905  0.76620835  0.77453588    -0.53500
C1408       C  0.32145206  0.75020751  0.75133445     0.10600
H1409       H  0.29911902  0.83979011  0.78686027     0.15100
H1410       H  0.26247028  0.74318418  0.74365680     0.00900
H1411       H  0.29598267  0.76502260  0.84681111     0.15400
H1412       H  0.37010877  0.76505018  0.77227161     0.15200
C1413       C  0.18453133  0.74260623  0.53883158     0.30500
C1414       C  0.24162106  0.70336864  0.54958625     0.30500
C1415       C  0.17768712  0.70919454  0.55486651    -0.05700
C1416       C  0.20418848  0.73128613  0.50579836    -0.06500
C1417       C  0.21360012  0.75861003  0.55931186    -0.06300
C1418       C  0.20570385  0.68919067  0.56038703    -0.05700
C1419       C  0.23428529  0.71121064  0.50972239    -0.06500
C1420       C  0.24108598  0.73874539  0.56585697    -0.06300
C1421       C  0.19198358  0.66206708  0.57683382    -0.31700
N1422       N  0.15792175  0.66786309  0.58590170     0.14800
C1423       C  0.14893183  0.69502308  0.56919191    -0.31700
H1424       H  0.12309898  0.70325433  0.56544644     0.16700
C1425       C  0.24644819  0.70654297  0.97688865    -0.30700
N1426       N  0.22598281  0.72176098  0.95338477     0.13500
C1427       C  0.19946988  0.73644409  0.97195086    -0.30700
C1428       C  0.26512635  0.75887357  0.58222092    -0.31000
N1429       N  0.25316140  0.79068818  0.58492969     0.14000
H1430       H  0.29037094  0.75111041  0.58869672     0.16600
C1431       C  0.22311475  0.79119145  0.56812735    -0.31000
H1432       H  0.21030548  0.81326408  0.56025076     0.16600
H1433       H  0.17836463  0.74944567  0.96100624     0.16600
H1434       H  0.20575052  0.63898541  0.57988599     0.16700
H1435       H  0.26908241  0.69164662  0.96997041     0.16600
C1436       C  0.18292427  0.69546721  0.83208862     0.30500
C1437       C  0.24168192  0.73173346  0.81738534     0.30500
C1438       C  0.17744435  0.72901776  0.81595186    -0.05700
C1439       C  0.20313159  0.70742396  0.86416054    -0.06500
C1440       C  0.21159615  0.67697991  0.81135868    -0.06300
C1441       C  0.20646196  0.74495318  0.80459268    -0.05700
C1442       C  0.23383106  0.72652504  0.85829093    -0.06500
C1443       C  0.24055710  0.69548714  0.80369384    -0.06300
C1444       C  0.19397347  0.76136030  0.77708469    -0.31700
N1445       N  0.15855261  0.76325099  0.77753391     0.14800
C1446       C  0.14876843  0.74325359  0.80224030    -0.31700
H1447       H  0.12250879  0.73884047  0.81026252     0.16700
C1448       C  0.24684903  0.73247840  0.89244767    -0.30700
N1449       N  0.22596713  0.71757035  0.91648118     0.13500
C1450       C  0.19923602  0.70294278  0.89849857    -0.30700
C1451       C  0.26625000  0.67308412  0.79473084    -0.31000
N1452       N  0.25373333  0.64124488  0.79484838     0.14000
H1453       H  0.29292208  0.67963537  0.79208033     0.16600
C1454       C  0.22111525  0.64340826  0.80749968    -0.31000
H1455       H  0.20596596  0.62242223  0.81555601     0.16600
H1456       H  0.17776544  0.69008628  0.90978763     0.16600
H1457       H  0.20949685  0.76723142  0.75601320     0.16700
H1458       H  0.26984990  0.74714357  0.89895318     0.16600
O1459       O  0.48371346  0.49521979  0.02384507    -0.74800
O1460       O  0.02523572  0.99403172  0.98567731    -0.53700
C1461       C  0.01078753  0.51042697  0.01459561     0.79000
O1462       O  0.36575802  0.88480679  0.96756078    -0.59400
O1463       O  0.32449587  0.92374610  0.96875681    -0.52400
C1464       C  0.34007657  0.90023335  0.98257695     0.71000
O1465       O  0.48524475  0.88109542  0.96427104    -0.73900
O1466       O  0.02354848  0.92041505  0.95673350    -0.54500
C1467       C  0.01239432  0.89218729  0.96673321     0.77000
O1468       O  0.36918150  0.49457295  0.52013040    -0.59100
O1469       O  0.33658307  0.52288603  0.96955504    -0.52200
C1470       C  0.35025358  0.53058234  0.99810415     0.73600
Zr1471     Zr  0.43175314  0.51027885  0.99583137     2.54700
O1472       O  0.42798934  0.49767396  0.55824941    -0.79600
O1473       O  0.44209859  0.57112592  0.99792930    -0.93100
Zr1474     Zr  0.42697356  0.90286232  0.96209363     2.64700
O1475       O  0.42537938  0.89300296  0.52204200    -0.98000
O1476       O  0.42580057  0.84310836  0.94290204    -0.80100
O1477       O  0.45867225  0.95236421  0.98042517    -0.83400
O1478       O  0.39245643  0.94909722  0.98062572    -2.18100
O1479       O  0.37814147  0.55202846  0.89062069    -0.66800
O1480       O  0.33739057  0.51128512  0.89424995    -0.51400
C1481       C  0.35058551  0.53641941  0.87996564     0.71900
O1482       O  0.48044017  0.92488854  0.84681837    -0.59700
O1483       O  0.02537343  0.94172735  0.88678143    -0.51700
C1484       C  0.01488622  0.92691039  0.85874560     0.73800
O1485       O  0.36310337  0.93191453  0.85678584    -0.71100
O1486       O  0.32788702  0.91874175  0.89728195    -0.49800
C1487       C  0.34207236  0.91118144  0.86879128     0.75100
O1488       O  0.49527472  0.54685883  0.89586431    -0.66500
O1489       O  0.02846535  0.01357754  0.91544448    -0.53700
C1490       C  0.01265884  0.54219441  0.89959096     0.73500
Zr1491     Zr  0.43573558  0.52965369  0.90112080     2.77500
O1492       O  0.44165791  0.53233449  0.84054586    -0.97200
O1493       O  0.43881832  0.59095103  0.91073056    -0.78000
Zr1494     Zr  0.42395823  0.93283050  0.87017280     2.70100
O1495       O  0.42214985  0.94702462  0.81198227    -0.79300
O1496       O  0.42217041  0.87268232  0.85303841    -0.98400
Zr1497     Zr  0.49137824  0.96869743  0.93352339     2.21500
Zr1498     Zr  0.35497149  0.96148194  0.93495733     2.11100
O1499       O  0.38888187  0.97904864  0.88724955    -2.47000
O1500       O  0.45630435  0.98207661  0.88724174    -0.79100
O1501       O  0.39977194  0.52315336  0.94821476    -0.69700
O1502       O  0.45928913  0.91919752  0.91524127    -2.32200
O1503       O  0.46775536  0.51877699  0.94939190    -2.28400
O1504       O  0.39201096  0.91524725  0.91665643    -0.73000
H1505       H  0.38123044  0.95078514  0.50164240     0.79000
H1506       H  0.47453130  0.90111283  0.90729106     0.80100
H1507       H  0.37648741  0.98581321  0.86804375     0.82300
H1508       H  0.48364332  0.53703928  0.95564683     0.79900
H1509       H  0.40262606  0.83907625  0.93295029     0.42900
H1510       H  0.43912613  0.86968718  0.83434762     0.41900
H1511       H  0.40332376  0.96375480  0.81121648     0.41600
H1512       H  0.46485928  0.54229170  0.83689094     0.39500
H1513       H  0.42950156  0.59559335  0.93375121     0.42600
H1514       H  0.46069777  0.57522648  0.01463289     0.37400
H1515       H  0.41006092  0.96733326  0.55567748     0.43500
H1516       H  0.40633469  0.90570522  0.53366148     0.40000
H1517       H  0.44365665  0.50851497  0.83150618     0.44900
H1518       H  0.39661889  0.56612219  0.49733504     0.43600
H1519       H  0.41830198  0.86890459  0.52123041     0.43700
H1520       H  0.43282365  0.86154152  0.87177059     0.44100
C1521       C  0.34856673  0.81096458  0.82318722    -0.04800
C1522       C  0.34233829  0.81566168  0.85783679    -0.01900
C1523       C  0.33513903  0.84824442  0.87200658     0.03100
C1524       C  0.34075925  0.87652530  0.85264757    -0.04800
C1525       C  0.35414401  0.87105228  0.81948936    -0.01900
C1526       C  0.36315579  0.83832828  0.80716951     0.03100
C1527       C  0.34568791  0.78756786  0.87890736     0.37700
C1528       C  0.35470338  0.89787240  0.79648362     0.37700
C1529       C  0.38013917  0.83289080  0.77470921     0.36100
C1530       C  0.31943360  0.85145682  0.90510093     0.36100
N1531       N  0.39395782  0.82859209  0.74894418    -0.38700
N1532       N  0.30560047  0.85283151  0.93096479    -0.38700
N1533       N  0.35439214  0.91871563  0.77759323    -0.38100
N1534       N  0.34830172  0.76520458  0.89584637    -0.38200
C1535       C  0.08415104  0.82841790  0.51769422    -0.04800
C1536       C  0.06303253  0.85282834  0.53622756    -0.01900
C1537       C  0.04573730  0.87743854  0.51986140     0.03100
C1538       C  0.03704749  0.87048818  0.98191520    -0.04800
C1539       C  0.05428686  0.84426134  0.96326962    -0.01900
C1540       C  0.07562533  0.82194130  0.97978542     0.03100
C1541       C  0.05721758  0.85216732  0.57228211     0.37700
C1542       C  0.04900116  0.83971408  0.92730514     0.37700
C1543       C  0.09145658  0.79432324  0.95970626     0.36100
C1544       C  0.02827269  0.90494580  0.53925864     0.36100
N1545       N  0.10345694  0.77254417  0.94265926    -0.38700
N1546       N  0.01452891  0.92692615  0.55453514    -0.38700
N1547       N  0.04445760  0.83590664  0.89869826    -0.38100
N1548       N  0.05197115  0.85163133  0.60081602    -0.38200
C1549       C  0.32406227  0.53722353  0.77619003    -0.04800
C1550       C  0.30390325  0.51818636  0.79790653    -0.01900
C1551       C  0.30887934  0.52282451  0.83282241     0.03100
C1552       C  0.33790326  0.54183806  0.84569160    -0.04800
C1553       C  0.36079736  0.55613783  0.82249027    -0.01900
C1554       C  0.35661332  0.54799580  0.78818398     0.03100
C1555       C  0.27649213  0.49605201  0.78474806     0.37700
C1556       C  0.38696170  0.58106518  0.83278876     0.37700
C1557       C  0.38604697  0.54877395  0.76555388     0.36100
C1558       C  0.29812804  0.97947478  0.84061590     0.36100
N1559       N  0.40965034  0.54914584  0.74749884    -0.38700
N1560       N  0.28316961  0.95460064  0.84455881    -0.38700
N1561       N  0.40739993  0.60160242  0.84055521    -0.38100
N1562       N  0.25477232  0.47786582  0.77470010    -0.38200
C1563       C  0.33129782  0.90463558  0.51223459    -0.04800
C1564       C  0.34490092  0.87384764  0.52150998    -0.01900
C1565       C  0.34775697  0.86784815  0.55546404     0.03100
C1566       C  0.32835312  0.88801652  0.57987616    -0.04800
C1567       C  0.31778502  0.92015652  0.57159936    -0.01900
C1568       C  0.31766164  0.92800251  0.53776175     0.03100
C1569       C  0.35263743  0.84655602  0.49637147     0.37700
C1570       C  0.30886094  0.94578252  0.59782416     0.37700
C1571       C  0.30071521  0.95895972  0.52992476     0.36100
C1572       C  0.36564241  0.83749425  0.56399876     0.36100
N1573       N  0.28608928  0.98338373  0.52466357    -0.38700
N1574       N  0.38016662  0.81332735  0.57031655    -0.38700
N1575       N  0.30186538  0.96631672  0.61879927    -0.38100
N1576       N  0.38088856  0.82085809  0.00454146    -0.38200
C1577       C  0.07591216  0.61436892  0.85322492    -0.04800
C1578       C  0.05494770  0.59012202  0.83420412    -0.01900
C1579       C  0.03857842  0.56400864  0.84989945     0.03100
C1580       C  0.03718765  0.56503533  0.88494433    -0.04800
C1581       C  0.05288753  0.59172763  0.90446462    -0.01900
C1582       C  0.07303027  0.61611802  0.88879119     0.03100
C1583       C  0.04990542  0.59153291  0.79820217     0.37700
C1584       C  0.04655691  0.59510921  0.94040358     0.37700
C1585       C  0.08697130  0.64433843  0.90950075     0.36100
C1586       C  0.02259370  0.53603302  0.82985017     0.36100
N1587       N  0.09751747  0.66667902  0.92680586    -0.38700
N1588       N  0.02044931  0.00752459  0.81965158    -0.38700
N1589       N  0.04109213  0.59823027  0.96897595    -0.38100
N1590       N  0.04564053  0.59271246  0.76966921    -0.38200
C1591       C  0.33124886  0.54063669  0.52486652    -0.04800
C1592       C  0.34750990  0.55287226  0.55474063    -0.01900
C1593       C  0.35005209  0.58776726  0.56316173     0.03100
C1594       C  0.32823354  0.61067378  0.54743511    -0.04800
C1595       C  0.30631122  0.59623232  0.52068459    -0.01900
C1596       C  0.34497134  0.59386999  0.99922483     0.03100
C1597       C  0.35836287  0.52935895  0.57889831     0.37700
C1598       C  0.35145012  0.65634140  0.00078254     0.37700
C1599       C  0.34209057  0.59325137  0.96314694     0.36100
C1600       C  0.37239945  0.59856793  0.59091031     0.36100
N1601       N  0.33905378  0.59451613  0.93451640    -0.38700
N1602       N  0.39072671  0.60593892  0.61303545    -0.38700
N1603       N  0.35579502  0.68109411  0.98749281    -0.38100
N1604       N  0.36611041  0.51069715  0.59851521    -0.38200
C1605       C  0.07298615  0.85941265  0.79036343    -0.04800
C1606       C  0.08825338  0.87175303  0.82158432    -0.01900
C1607       C  0.07035411  0.89480037  0.84407508     0.03100
C1608       C  0.03971944  0.90999181  0.83393971    -0.04800
C1609       C  0.03002467  0.90468821  0.79982337    -0.01900
C1610       C  0.04538598  0.87881433  0.77868411     0.03100
C1611       C  0.12372772  0.86402278  0.82982683     0.37700
C1612       C  0.00587855  0.92750584  0.78553945     0.37700
C1613       C  0.03404432  0.87426895  0.74410686     0.36100
C1614       C  0.08406505  0.90304960  0.87737992     0.36100
N1615       N  0.02479413  0.87094592  0.71659504    -0.38700
N1616       N  0.09511699  0.90949518  0.90390525    -0.38700
N1617       N  0.48273051  0.94651323  0.76945100    -0.38100
N1618       N  0.15201657  0.85807738  0.83656250    -0.38200
C1619       C  0.07004661  0.57507409  0.58256740    -0.04800
C1620       C  0.04125094  0.55696480  0.59448178    -0.01900
C1621       C  0.02635174  0.53016572  0.57423327     0.03100
C1622       C  0.03762549  0.52314934  0.54046243    -0.04800
C1623       C  0.06968722  0.53658714  0.53086611    -0.01900
C1624       C  0.08713240  0.56020773  0.55293605     0.03100
C1625       C  0.02822794  0.56382866  0.62847686     0.37700
C1626       C  0.08078327  0.53460621  0.99730900     0.37700
C1627       C  0.12357645  0.56628417  0.54589523     0.36100
C1628       C  0.50540472  0.50997720  0.58509752     0.36100
N1629       N  0.15253509  0.57094767  0.53985622    -0.38700
N1630       N  0.48712439  0.49150673  0.59805563    -0.38700
N1631       N  0.09154811  0.53025940  0.97022937    -0.38100
N1632       N  0.01764603  0.56893819  0.65555096    -0.38200
C1633       C  0.59132174  0.10092015  0.10472329     0.87000
C1634       C  0.61425350  0.12443659  0.08445114    -0.53200
C1635       C  0.63610294  0.14514656  0.10251942     0.09900
C1636       C  0.62962258  0.14283889  0.14163133     0.20900
C1637       C  0.61601087  0.08314588  0.12780599    -0.54000
C1638       C  0.63762638  0.10343721  0.14668539     0.10000
C1639       C  0.56951474  0.12693900  0.12778628    -0.53500
C1640       C  0.58802194  0.15013387  0.14777269     0.10600
H1641       H  0.61317631  0.12508883  0.05737796     0.15100
H1642       H  0.64630345  0.16066913  0.15698901     0.00900
H1643       H  0.61810749  0.05579237  0.12682709     0.15400
H1644       H  0.54163328  0.12897191  0.12583970     0.15200
C1645       C  0.57013086  0.25023228  0.20053222     0.30500
C1646       C  0.57069632  0.18424998  0.16746788     0.30500
C1647       C  0.58577620  0.22149058  0.21880638    -0.05700
C1648       C  0.53155187  0.23377811  0.19264901    -0.06500
C1649       C  0.58575894  0.24586018  0.16539052    -0.06300
C1650       C  0.58517842  0.18880467  0.20301014    -0.05700
C1651       C  0.53165829  0.20040341  0.17507253    -0.06500
C1652       C  0.58655474  0.21326066  0.14956253    -0.06300
C1653       C  0.58259742  0.16729961  0.22877308    -0.31700
N1654       N  0.58572301  0.18486388  0.25884536     0.14800
C1655       C  0.58573211  0.21790574  0.25289994    -0.31700
H1656       H  0.58198598  0.23814185  0.27201434     0.16700
C1657       C  0.99526085  0.19854675  0.17146948    -0.30700
N1658       N  0.97333416  0.22368821  0.18530954     0.13500
C1659       C  0.99588984  0.24854528  0.19916122    -0.30700
C1660       C  0.58611848  0.21680422  0.11559977    -0.31000
N1661       N  0.58626282  0.24979685  0.10977259     0.14000
H1662       H  0.58167299  0.19647704  0.09665393     0.16600
C1663       C  0.58340114  0.26732586  0.13981127    -0.31000
H1664       H  0.57436601  0.29298861  0.14258901     0.16600
H1665       H  0.98705345  0.27203242  0.21171191     0.16600
H1666       H  0.57433247  0.14117364  0.22608426     0.16700
H1667       H  0.98591502  0.17531522  0.15869488     0.16600
C1668       C  0.58838699  0.33212613  0.26440262     0.87000
C1669       C  0.61090386  0.30693172  0.28229934    -0.53200
C1670       C  0.63269239  0.28749766  0.26239638     0.09900
C1671       C  0.62714290  0.29363053  0.22442881     0.20900
C1672       C  0.61288539  0.35219177  0.24285275    -0.54000
C1673       C  0.63443404  0.33405523  0.22258624     0.10000
C1674       C  0.56670474  0.30748904  0.23992996    -0.53500
C1675       C  0.58582667  0.28536691  0.21902467     0.10600
H1676       H  0.60904085  0.30385029  0.30902954     0.15100
H1677       H  0.64429185  0.27753453  0.20768926     0.00900
H1678       H  0.61481600  0.37964450  0.24557388     0.15400
H1679       H  0.53879605  0.30499119  0.24215679     0.15200
C1680       C  0.66980330  0.08766055  0.16526502     0.30500
C1681       C  0.72846241  0.07324794  0.20036736     0.30500
C1682       C  0.67203042  0.10328677  0.20046886    -0.05700
C1683       C  0.67640586  0.04687299  0.17198813    -0.06500
C1684       C  0.70530909  0.09976737  0.15092629    -0.06300
C1685       C  0.70082469  0.09518854  0.21842952    -0.05700
C1686       C  0.70700687  0.04133641  0.19038133    -0.06500
C1687       C  0.73439280  0.08846971  0.16648239    -0.06300
C1688       C  0.69119656  0.09802319  0.25161675    -0.31700
N1689       N  0.65945106  0.11165700  0.25424386     0.14800
C1690       C  0.64687129  0.11286342  0.22309605    -0.31700
H1691       H  0.62038838  0.11579419  0.21706376     0.16700
C1692       C  0.70945840  0.00744481  0.19712657    -0.30700
N1693       N  0.67672710  0.48790841  0.18754578     0.13500
C1694       C  0.66188899  0.01273677  0.16859583    -0.30700
C1695       C  0.76302697  0.10428810  0.15371039    -0.31000
N1696       N  0.75320091  0.13009962  0.13550858     0.14000
H1697       H  0.78931042  0.09706678  0.15805921     0.16600
C1698       C  0.71779838  0.12936619  0.13727940    -0.31000
H1699       H  0.70214743  0.15098498  0.13392695     0.16600
H1700       H  0.63372926  0.50432784  0.15736229     0.16600
H1701       H  0.70524070  0.08798395  0.27181807     0.16700
H1702       H  0.72494728  0.49529276  0.21369645     0.16600
C1703       C  0.82350971  0.14771728  0.06960637     0.87000
C1704       C  0.79824576  0.12795009  0.09177812    -0.53200
C1705       C  0.77632168  0.14681347  0.11194468     0.09900
C1706       C  0.78183582  0.18530677  0.10715637     0.20900
C1707       C  0.79877263  0.16861775  0.04893991    -0.54000
C1708       C  0.77548442  0.18757610  0.06698535     0.10000
C1709       C  0.84317908  0.17258894  0.09417506    -0.53500
C1710       C  0.82294053  0.19149398  0.11602553     0.10600
H1711       H  0.79754241  0.10051725  0.09150904     0.15100
H1712       H  0.76407625  0.20134638  0.12329785     0.00900
H1713       H  0.79638205  0.16582746  0.02196720     0.15400
H1714       H  0.87107713  0.17177075  0.09700112     0.15200
C1715       C  0.60577082  0.13240612  0.33214937     0.87000
C1716       C  0.62792163  0.11004319  0.30706354    -0.53200
C1717       C  0.64406422  0.12749845  0.28378526     0.09900
C1718       C  0.64001226  0.16569941  0.28902924     0.20900
C1719       C  0.63341254  0.15689104  0.34879652    -0.54000
C1720       C  0.65131196  0.17453141  0.32607685     0.10000
C1721       C  0.58299949  0.15434292  0.31051542    -0.53500
C1722       C  0.60110894  0.17130117  0.28769203     0.10600
H1723       H  0.62897788  0.08259844  0.30633360     0.15100
H1724       H  0.65449578  0.17920744  0.26976625     0.00900
H1725       H  0.64126438  0.15756211  0.37466440     0.15400
H1726       H  0.55488220  0.15383558  0.31110252     0.15200
C1727       C  0.83823212  0.20731183  0.15133292     0.30500
C1728       C  0.83674903  0.23597127  0.21739230     0.30500
C1729       C  0.82304517  0.18605830  0.17828364    -0.05700
C1730       C  0.87675190  0.21541107  0.16747033    -0.06500
C1731       C  0.82186171  0.24155421  0.15766618    -0.06300
C1732       C  0.82328350  0.20002562  0.21136343    -0.05700
C1733       C  0.87601439  0.23088777  0.20132525    -0.06500
C1734       C  0.82052781  0.25544682  0.19054545    -0.06300
C1735       C  0.82912781  0.17331662  0.23085904    -0.31700
N1736       N  0.82828424  0.14379719  0.21201604     0.14800
C1737       C  0.82635379  0.15160404  0.17985432    -0.31700
H1738       H  0.83092461  0.13380997  0.15865488     0.16700
C1739       C  0.91196566  0.23584879  0.21027731    -0.30700
N1740       N  0.93474794  0.22390322  0.18489443     0.13500
C1741       C  0.91300268  0.21136528  0.15918079    -0.30700
C1742       C  0.82135608  0.28991010  0.18904479    -0.31000
N1743       N  0.82195789  0.29754392  0.15688953     0.14000
H1744       H  0.82610338  0.30789389  0.21005416     0.16600
C1745       C  0.82470371  0.26839467  0.13788694    -0.31000
H1746       H  0.83406260  0.26720048  0.11237557     0.16600
H1747       H  0.92254806  0.19994378  0.13553039     0.16600
H1748       H  0.83706323  0.17527035  0.25678596     0.16700
H1749       H  0.92055232  0.24681019  0.23435782     0.16600
C1750       C  0.80572643  0.37458554  0.11006109     0.87000
C1751       C  0.78859180  0.34939478  0.08323435    -0.53200
C1752       C  0.77007930  0.32421952  0.09613298     0.09900
C1753       C  0.76894486  0.32670131  0.13428744     0.20900
C1754       C  0.77528781  0.38804354  0.13274954    -0.54000
C1755       C  0.75569976  0.36291409  0.14511559     0.10000
C1756       C  0.82591074  0.35224657  0.13319906    -0.53500
C1757       C  0.80679165  0.32679879  0.14461292     0.10600
H1758       H  0.79203905  0.35051364  0.05635243     0.15100
H1759       H  0.75382589  0.30567239  0.14449789     0.00900
H1760       H  0.77055696  0.41420138  0.14003230     0.15400
H1761       H  0.85282435  0.35513787  0.13987902     0.15200
C1762       C  0.80697067  0.06935604  0.26255760     0.87000
C1763       C  0.78665585  0.09525467  0.28583808    -0.53200
C1764       C  0.77010964  0.11886119  0.26989751     0.09900
C1765       C  0.77338370  0.11443743  0.23185437     0.20900
C1766       C  0.77845843  0.05386744  0.23831313    -0.54000
C1767       C  0.76074082  0.07774714  0.22227659     0.10000
C1768       C  0.82981259  0.09038215  0.23948336    -0.53500
C1769       C  0.81214115  0.11452224  0.22449677     0.10600
H1770       H  0.78636674  0.09569945  0.31307832     0.15100
H1771       H  0.75948337  0.13454321  0.21945945     0.00900
H1772       H  0.77190385  0.02766418  0.23414687     0.15400
H1773       H  0.85767928  0.08799011  0.23685939     0.15200
C1774       C  0.66542161  0.35288248  0.20468659     0.30500
C1775       C  0.72348471  0.36652144  0.16729147     0.30500
C1776       C  0.66706874  0.33703615  0.16893301    -0.05700
C1777       C  0.67177003  0.39334888  0.19748693    -0.06500
C1778       C  0.70112050  0.34307183  0.21913639    -0.06300
C1779       C  0.69589382  0.34467291  0.15022554    -0.05700
C1780       C  0.70230870  0.39886436  0.17822980    -0.06500
C1781       C  0.72955931  0.34998660  0.19997413    -0.06300
C1782       C  0.68688353  0.34142815  0.11716692    -0.31700
N1783       N  0.65468951  0.32866693  0.11478176     0.14800
C1784       C  0.64163886  0.32808167  0.14623996    -0.31700
H1785       H  0.61482820  0.32601657  0.15245774     0.16700
C1786       C  0.70432297  0.43290032  0.17109933    -0.30700
N1787       N  0.67691798  0.45081767  0.18451882     0.13500
C1788       C  0.65723633  0.42719286  0.20127573    -0.30700
C1789       C  0.75807365  0.33589549  0.21383040    -0.31000
N1790       N  0.74862346  0.31778149  0.24000770     0.14000
H1791       H  0.78406563  0.34087190  0.20616550     0.16600
C1792       C  0.71432019  0.32598995  0.24564902    -0.31000
H1793       H  0.69999831  0.32226946  0.26833147     0.16600
H1794       H  0.63408803  0.43376645  0.21565045     0.16600
H1795       H  0.70162552  0.35107758  0.09687016     0.16700
H1796       H  0.72491384  0.44431326  0.15725046     0.16600
C1797       C  0.60438676  0.30247968  0.03628266     0.87000
C1798       C  0.62401911  0.32683409  0.06165579    -0.53200
C1799       C  0.64076460  0.31117203  0.08539466     0.09900
C1800       C  0.64010192  0.27279756  0.08027562     0.20900
C1801       C  0.63420279  0.28013800  0.02023675    -0.54000
C1802       C  0.65294798  0.26438131  0.04346910     0.10000
C1803       C  0.58312957  0.27809834  0.05737124    -0.53500
C1804       C  0.60173250  0.26362756  0.08090543     0.10600
H1805       H  0.62262439  0.35426373  0.06227694     0.15100
H1806       H  0.65497739  0.26081595  0.09989075     0.00900
H1807       H  0.64202005  0.27847896  0.99436171     0.15400
H1808       H  0.55513521  0.27548518  0.05620736     0.15200
C1809       C  0.82059751  0.29413816  0.30027461     0.87000
C1810       C  0.79581357  0.31604505  0.28041795    -0.53200
C1811       C  0.77315084  0.29902786  0.26003609     0.09900
C1812       C  0.77868453  0.25951355  0.26080944     0.20900
C1813       C  0.79519339  0.27178840  0.31943446    -0.54000
C1814       C  0.77195588  0.25407876  0.30013425     0.10000
C1815       C  0.83999567  0.27053928  0.27439479    -0.53500
C1816       C  0.81992334  0.25281099  0.25190027     0.10600
H1817       H  0.79539398  0.34351746  0.28305786     0.15100
H1818       H  0.76106530  0.24455306  0.24365739     0.00900
H1819       H  0.79233788  0.27257639  0.34632398     0.15400
H1820       H  0.86802772  0.27046720  0.27214277     0.15200
C1821       C  0.68540106  0.24254281  0.03789556     0.30500
C1822       C  0.74378239  0.20480084  0.04886564     0.30500
C1823       C  0.67976034  0.20975187  0.05526319    -0.05700
C1824       C  0.70481758  0.23025515  0.00471003    -0.06500
C1825       C  0.71456276  0.26019479  0.05746980    -0.06300
C1826       C  0.70823715  0.19050407  0.06081508    -0.05700
C1827       C  0.73542225  0.21094733  0.00892273    -0.06500
C1828       C  0.74321598  0.24133383  0.06358950    -0.06300
C1829       C  0.69485071  0.16253706  0.07632957    -0.31700
N1830       N  0.66055693  0.16729207  0.08525455     0.14800
C1831       C  0.65114615  0.19454717  0.06894076    -0.31700
H1832       H  0.62509539  0.20187812  0.06466623     0.16700
C1833       C  0.74820780  0.20579656  0.47501578    -0.30700
N1834       N  0.72801862  0.22211827  0.45215632     0.13500
C1835       C  0.70209199  0.23722332  0.47108576    -0.30700
C1836       C  0.76851396  0.26382269  0.07475862    -0.31000
N1837       N  0.75588946  0.29569325  0.07630796     0.14000
H1838       H  0.79487180  0.25728559  0.07842209     0.16600
C1839       C  0.72368000  0.29368005  0.06340452    -0.31000
H1840       H  0.70862414  0.31476716  0.05639352     0.16600
H1841       H  0.68129386  0.25097351  0.46052725     0.16600
H1842       H  0.70894200  0.13946324  0.07840541     0.16700
H1843       H  0.77030250  0.19033774  0.46757706     0.16600
C1844       C  0.68315850  0.19712634  0.33191897     0.30500
C1845       C  0.74029466  0.23529189  0.31686912     0.30500
C1846       C  0.67618226  0.23109167  0.31684259    -0.05700
C1847       C  0.70366938  0.20882701  0.36367214    -0.06500
C1848       C  0.71205804  0.17999291  0.31047921    -0.06300
C1849       C  0.70457437  0.24800225  0.30517834    -0.05700
C1850       C  0.73364968  0.22887443  0.35762305    -0.06500
C1851       C  0.73957147  0.19971568  0.30193922    -0.06300
C1852       C  0.69141755  0.26259040  0.27696214    -0.31700
N1853       N  0.65601005  0.26346428  0.27750483     0.14800
C1854       C  0.64694253  0.24391373  0.30277870    -0.31700
H1855       H  0.62082607  0.23847856  0.31060543     0.16700
C1856       C  0.74730514  0.23443838  0.39145176    -0.30700
N1857       N  0.72743646  0.21836673  0.41538661     0.13500
C1858       C  0.70067938  0.20343017  0.39778793    -0.30700
C1859       C  0.76426314  0.17930917  0.28721930    -0.31000
N1860       N  0.75322899  0.14704830  0.28726787     0.14000
H1861       H  0.78930850  0.18757423  0.27990653     0.16600
C1862       C  0.72268383  0.14702542  0.30423832    -0.31000
H1863       H  0.70973505  0.12505906  0.31303013     0.16600
H1864       H  0.67978253  0.18986757  0.40922605     0.16600
H1865       H  0.70659296  0.26741034  0.25529562     0.16700
H1866       H  0.76998134  0.24963899  0.39785501     0.16600
O1867       O  0.98034861  0.01181085  0.52556756    -0.74800
O1868       O  0.52465519  0.49612881  0.48313657    -0.53700
C1869       C  0.51579556  0.00875447  0.51309221     0.79000
O1870       O  0.86733355  0.38433722  0.46570183    -0.59400
O1871       O  0.82552613  0.42255542  0.46799571    -0.52400
C1872       C  0.84166657  0.39909859  0.48136494     0.71000
O1873       O  0.98726175  0.38266898  0.46765901    -0.73900
O1874       O  0.52991972  0.42422939  0.45451750    -0.54500
C1875       C  0.52195961  0.39511719  0.46484068     0.77000
O1876       O  0.86583877  0.00359790  0.01084305    -0.59100
O1877       O  0.82753285  0.00800765  0.47114419    -0.52200
C1878       C  0.84116779  0.01747409  0.49919681     0.73600
Zr1879     Zr  0.92535398  0.00581886  0.49835645     2.54700
O1880       O  0.92458091  0.99529195  0.05722532    -0.79600
O1881       O  0.92087752  0.06714473  0.50674495    -0.93100
Zr1882     Zr  0.92866382  0.40251018  0.46366360     2.64700
O1883       O  0.93568402  0.40136510  0.02922412    -0.98000
O1884       O  0.92751272  0.34223339  0.44679586    -0.80100
O1885       O  0.96150853  0.45096251  0.48203076    -0.83400
O1886       O  0.89410422  0.44832775  0.48401034    -2.18100
O1887       O  0.86429146  0.03768081  0.40692024    -0.66800
O1888       O  0.82642013  0.99597676  0.39946387    -0.51400
C1889       C  0.84033306  0.02267766  0.38926142     0.71900
O1890       O  0.98233337  0.42776412  0.34765370    -0.59700
O1891       O  0.52540617  0.44289836  0.38417361    -0.51700
C1892       C  0.51464388  0.42690382  0.35682912     0.73800
O1893       O  0.86495080  0.43604368  0.36041124    -0.71100
O1894       O  0.82951468  0.42180995  0.40028463    -0.49800
C1895       C  0.84353242  0.41515760  0.37157716     0.75100
O1896       O  0.98582862  0.04483258  0.39356332    -0.66500
O1897       O  0.52278492  0.51709483  0.41205745    -0.53700
C1898       C  0.52113653  0.04117476  0.40398493     0.73500
Zr1899     Zr  0.92678233  0.02673802  0.40397639     2.77500
O1900       O  0.92255469  0.04004003  0.34560667    -0.97200
O1901       O  0.92640980  0.08749383  0.41859990    -0.78000
Zr1902     Zr  0.92609582  0.43521224  0.37247764     2.70100
O1903       O  0.92304112  0.44857710  0.31418713    -0.79300
O1904       O  0.92304681  0.37557369  0.35325328    -0.98400
Zr1905     Zr  0.99373093  0.46894042  0.43539287     2.21500
Zr1906     Zr  0.85769463  0.46302774  0.43862184     2.11100
O1907       O  0.89155767  0.48147887  0.39145254    -2.47000
O1908       O  0.95836574  0.48440922  0.39019364    -0.79100
O1909       O  0.89209135  0.01549026  0.45085744    -0.69700
O1910       O  0.96131682  0.41951638  0.41686909    -2.32200
O1911       O  0.96057025  0.01797517  0.45181543    -2.28400
O1912       O  0.89431585  0.41696736  0.41869141    -0.73000
H1913       H  0.88294309  0.44676096  0.00408700     0.79000
H1914       H  0.97647947  0.40148758  0.40857078     0.80100
H1915       H  0.87940608  0.48932004  0.37255143     0.82300
H1916       H  0.97494340  0.03751325  0.45778865     0.79900
H1917       H  0.91065874  0.33991523  0.42823921     0.42900
H1918       H  0.93771257  0.37357571  0.33275578     0.41900
H1919       H  0.91431639  0.47205391  0.31510309     0.41600
H1920       H  0.93768899  0.06013329  0.34372977     0.39500
H1921       H  0.94634186  0.09681584  0.40639577     0.42600
H1922       H  0.91164544  0.07445519  0.48541748     0.37400
H1923       H  0.92883968  0.47033454  0.05705296     0.43500
H1924       H  0.91497680  0.41176263  0.04018572     0.40000
H1925       H  0.93493820  0.02142150  0.33286747     0.44900
H1926       H  0.93395008  0.06789209  0.03749180     0.43600
H1927       H  0.93404095  0.37690764  0.03257943     0.43700
H1928       H  0.93612764  0.36377955  0.37007026     0.44100
C1929       C  0.84520308  0.31717996  0.32081973    -0.04800
C1930       C  0.84152700  0.32026287  0.35575738    -0.01900
C1931       C  0.83515403  0.35221642  0.37161422     0.03100
C1932       C  0.84084712  0.38145756  0.35366400    -0.04800
C1933       C  0.85250435  0.37752303  0.31976992    -0.01900
C1934       C  0.85859349  0.34511265  0.30482420     0.03100
C1935       C  0.84576556  0.29099765  0.37513543     0.37700
C1936       C  0.85460979  0.40604259  0.29884877     0.37700
C1937       C  0.87200384  0.34090887  0.27070075     0.36100
C1938       C  0.81916297  0.35372175  0.40457282     0.36100
N1939       N  0.88285215  0.33778673  0.24356360    -0.38700
N1940       N  0.80479237  0.35342334  0.43009237    -0.38700
N1941       N  0.85591212  0.42828943  0.28157637    -0.38100
N1942       N  0.84913909  0.26758455  0.39054485    -0.38200
C1943       C  0.57939882  0.32368494  0.01683418    -0.04800
C1944       C  0.55638720  0.34561801  0.03650575    -0.01900
C1945       C  0.53639368  0.36927259  0.02137836     0.03100
C1946       C  0.54879220  0.37542905  0.47961758    -0.04800
C1947       C  0.56215273  0.34597070  0.46257598    -0.01900
C1948       C  0.58181848  0.32312621  0.48015198     0.03100
C1949       C  0.55323103  0.34491350  0.07289650     0.37700
C1950       C  0.55380269  0.33819857  0.42751678     0.37700
C1951       C  0.59270593  0.29181634  0.46237682     0.36100
C1952       C  0.51556376  0.39328326  0.04211521     0.36100
N1953       N  0.60093601  0.26690593  0.44764952    -0.38700
N1954       N  0.49925799  0.41229254  0.05884616    -0.38700
N1955       N  0.54688202  0.33159119  0.39969647    -0.38100
N1956       N  0.55078095  0.34482692  0.10179269    -0.38200
C1957       C  0.82784364  0.04875435  0.28656048    -0.04800
C1958       C  0.81495679  0.01743871  0.29654672    -0.01900
C1959       C  0.81660869  0.00978955  0.33048400     0.03100
C1960       C  0.83332919  0.03240875  0.35456106    -0.04800
C1961       C  0.84795249  0.06250312  0.34389916    -0.01900
C1962       C  0.84952069  0.06812672  0.30968373     0.03100
C1963       C  0.80115181  0.99208613  0.27227778     0.37700
C1964       C  0.85691659  0.09015865  0.36822405     0.37700
C1965       C  0.86877721  0.09772401  0.30017625     0.36100
C1966       C  0.79575835  0.48211850  0.34763927     0.36100
N1967       N  0.88433792  0.12145847  0.29341186    -0.38700
N1968       N  0.78168639  0.45736188  0.35378515    -0.38700
N1969       N  0.86288107  0.11271748  0.38734283    -0.38100
N1970       N  0.79015317  0.97102043  0.25369717    -0.38200
C1971       C  0.83411683  0.40261349  0.02145905    -0.04800
C1972       C  0.85413669  0.37986394  0.03851775    -0.01900
C1973       C  0.85613161  0.38370854  0.07345886     0.03100
C1974       C  0.82848698  0.39941651  0.09190588    -0.04800
C1975       C  0.81115209  0.42508819  0.07611437    -0.01900
C1976       C  0.81337158  0.42656253  0.04099738     0.03100
C1977       C  0.87025112  0.35060781  0.02120882     0.37700
C1978       C  0.79188913  0.45071941  0.09595460     0.37700
C1979       C  0.79267950  0.45181628  0.02590951     0.36100
C1980       C  0.88544385  0.36966271  0.08981989     0.36100
N1981       N  0.77569242  0.47200818  0.01458632    -0.38700
N1982       N  0.90938054  0.35866306  0.10231265    -0.38700
N1983       N  0.77657570  0.47167557  0.11121295    -0.38100
N1984       N  0.87766655  0.31619009  0.50144168    -0.38200
C1985       C  0.58303927  0.10986476  0.35281242    -0.04800
C1986       C  0.56448213  0.08281092  0.33535275    -0.01900
C1987       C  0.54841604  0.05791152  0.35307466     0.03100
C1988       C  0.54717595  0.06142082  0.38821759    -0.04800
C1989       C  0.56209932  0.08971152  0.40588780    -0.01900
C1990       C  0.57907991  0.11463204  0.38817959     0.03100
C1991       C  0.56030765  0.08095555  0.29903426     0.37700
C1992       C  0.55836527  0.09399052  0.44211653     0.37700
C1993       C  0.58661910  0.14698770  0.40586776     0.36100
C1994       C  0.53109998  0.02944087  0.33498899     0.36100
N1995       N  0.59186495  0.17293862  0.42016478    -0.38700
N1996       N  0.50928431  0.51419092  0.31444711    -0.38700
N1997       N  0.55557426  0.09761807  0.47100459    -0.38100
N1998       N  0.55699618  0.07937413  0.27019880    -0.38200
C1999       C  0.84297779  0.05823359  0.01701434    -0.04800
C2000       C  0.85358374  0.06256716  0.05107262    -0.01900
C2001       C  0.85932183  0.09515214  0.06595032     0.03100
C2002       C  0.84729440  0.12299616  0.04959457    -0.04800
C2003       C  0.84517225  0.11944206  0.01452969    -0.01900
C2004       C  0.83184881  0.08008808  0.49776045     0.03100
C2005       C  0.85618674  0.03412253  0.07190732     0.37700
C2006       C  0.84439959  0.14082440  0.49313873     0.37700
C2007       C  0.81955588  0.07733478  0.46358155     0.36100
C2008       C  0.87388101  0.09992218  0.09928124     0.36100
N2009       N  0.80818038  0.07645266  0.43686127    -0.38700
N2010       N  0.88630184  0.10339457  0.12554698    -0.38700
N2011       N  0.85017008  0.16332067  0.47689504    -0.38100
N2012       N  0.85819682  0.01168147  0.08880200    -0.38200
C2013       C  0.57017521  0.35864918  0.28864939    -0.04800
C2014       C  0.58665399  0.37160805  0.31903230    -0.01900
C2015       C  0.56955052  0.39492108  0.34164972     0.03100
C2016       C  0.53911393  0.41049107  0.33175163    -0.04800
C2017       C  0.52868381  0.40507182  0.29785391    -0.01900
C2018       C  0.54332617  0.37877386  0.27675774     0.03100
C2019       C  0.62295292  0.36538614  0.32533443     0.37700
C2020       C  0.50410452  0.42781937  0.28409026     0.37700
C2021       C  0.53333164  0.37526681  0.24174843     0.36100
C2022       C  0.58388562  0.40295464  0.37473288     0.36100
N2023       N  0.52587050  0.37302040  0.21369035    -0.38700
N2024       N  0.59565383  0.40913932  0.40100101    -0.38700
N2025       N  0.98245923  0.44704225  0.27014866    -0.38100
N2026       N  0.65199926  0.36092111  0.33021488    -0.38200
C2027       C  0.57202780  0.07359821  0.08184689    -0.04800
C2028       C  0.54167400  0.05766614  0.09327078    -0.01900
C2029       C  0.52347254  0.03385891  0.07188476     0.03100
C2030       C  0.53478714  0.02584401  0.03815754    -0.04800
C2031       C  0.56854555  0.03618487  0.02944817    -0.01900
C2032       C  0.58776784  0.05819384  0.05193417     0.03100
C2033       C  0.53055360  0.06320730  0.12805193     0.37700
C2034       C  0.58884772  0.02697864  0.49747360     0.37700
C2035       C  0.62456960  0.06207492  0.04525598     0.36100
C2036       C  0.00305262  0.00992774  0.08674784     0.36100
N2037       N  0.65390172  0.06486883  0.03975901    -0.38700
N2038       N  0.98405363  0.99180506  0.09927506    -0.38700
N2039       N  0.60216275  0.01814768  0.47232489    -0.38100
N2040       N  0.52172247  0.06729632  0.15580076    -0.38200
C2041       C  0.58963543  0.10444391  0.60395559     0.87000
C2042       C  0.61287652  0.12802480  0.58424612    -0.53200
C2043       C  0.63474618  0.14813089  0.60272808     0.09900
C2044       C  0.62788705  0.14538176  0.64168322     0.20900
C2045       C  0.61339052  0.08608969  0.62717994    -0.54000
C2046       C  0.63482438  0.10564545  0.64651752     0.10000
C2047       C  0.56769418  0.13048675  0.62696007    -0.53500
C2048       C  0.58647316  0.15349301  0.64715258     0.10600
H2049       H  0.61198203  0.12912928  0.55719612     0.15100
H2050       H  0.64465529  0.16275957  0.65744541     0.00900
H2051       H  0.61505675  0.05867444  0.62605099     0.15400
H2052       H  0.53984190  0.13264142  0.62481001     0.15200
C2053       C  0.57196547  0.25359831  0.70054446     0.30500
C2054       C  0.57024864  0.18808213  0.66675114     0.30500
C2055       C  0.58681879  0.22424791  0.71834705    -0.05700
C2056       C  0.53277773  0.23827122  0.69284216    -0.06500
C2057       C  0.58723038  0.24936056  0.66534050    -0.06300
C2058       C  0.58505358  0.19176998  0.70220087    -0.05700
C2059       C  0.53183590  0.20508171  0.67493779    -0.06500
C2060       C  0.58679518  0.21703687  0.64894687    -0.06300
C2061       C  0.58143280  0.17006353  0.72769556    -0.31700
N2062       N  0.58482939  0.18719616  0.75795220     0.14800
C2063       C  0.58621129  0.22029603  0.75235893    -0.31700
H2064       H  0.58276119  0.24048640  0.77158321     0.16700
C2065       C  0.99643359  0.19251570  0.67059070    -0.30700
N2066       N  0.97401251  0.21748156  0.68419951     0.13500
C2067       C  0.99614665  0.24267059  0.69792824    -0.30700
C2068       C  0.58619763  0.22156059  0.61508454    -0.31000
N2069       N  0.58770247  0.25482212  0.60996354     0.14000
H2070       H  0.58070393  0.20183544  0.59579009     0.16600
C2071       C  0.58570682  0.27164762  0.64040792    -0.31000
H2072       H  0.57800278  0.29771716  0.64395802     0.16600
H2073       H  0.98696671  0.26611480  0.71029492     0.16600
H2074       H  0.57198592  0.14434736  0.72465168     0.16700
H2075       H  0.98744602  0.16908300  0.65793727     0.16600
C2076       C  0.59214532  0.33509280  0.76410371     0.87000
C2077       C  0.61480818  0.31012059  0.78235007    -0.53200
C2078       C  0.63579481  0.28964810  0.76240607     0.09900
C2079       C  0.63034013  0.29566873  0.72438547     0.20900
C2080       C  0.61681628  0.35464882  0.74207673    -0.54000
C2081       C  0.63858014  0.33600077  0.72225493     0.10000
C2082       C  0.57024921  0.31016757  0.74023853    -0.53500
C2083       C  0.58885169  0.28805799  0.71918055     0.10600
H2084       H  0.61367995  0.30813332  0.80929659     0.15100
H2085       H  0.64711091  0.27908453  0.70773230     0.00900
H2086       H  0.61898863  0.38208366  0.74450904     0.15400
H2087       H  0.54250286  0.30698738  0.74320348     0.15200
C2088       C  0.66592779  0.08836435  0.66508976     0.30500
C2089       C  0.72375835  0.07217541  0.70016714     0.30500
C2090       C  0.66797809  0.10324351  0.70052470    -0.05700
C2091       C  0.67159752  0.04710599  0.67112229    -0.06500
C2092       C  0.70160776  0.10003733  0.65124106    -0.06300
C2093       C  0.69637634  0.09422133  0.71855403    -0.05700
C2094       C  0.70192978  0.04085328  0.68959336    -0.06500
C2095       C  0.73024063  0.08801195  0.66673511    -0.06300
C2096       C  0.68630201  0.09628178  0.75164690    -0.31700
N2097       N  0.65457783  0.11001491  0.75423104     0.14800
C2098       C  0.64255223  0.11231671  0.72303181    -0.31700
H2099       H  0.61616325  0.11572330  0.71679964     0.16700
C2100       C  0.70369576  0.00707053  0.69657034    -0.30700
N2101       N  0.68240968  0.48855267  0.68361611     0.13500
C2102       C  0.65667944  0.01301007  0.66751310    -0.30700
C2103       C  0.75913442  0.10359269  0.65437185    -0.31000
N2104       N  0.74990784  0.12989899  0.63648190     0.14000
H2105       H  0.78511869  0.09516157  0.65808357     0.16600
C2106       C  0.71454584  0.12952734  0.63786159    -0.31000
H2107       H  0.69925841  0.15132080  0.63437025     0.16600
H2108       H  0.63847885  0.50419676  0.65408621     0.16600
H2109       H  0.70001954  0.08569682  0.77175029     0.16700
H2110       H  0.73057629  0.49694616  0.70931731     0.16600
C2111       C  0.81931324  0.14344318  0.56898423     0.87000
C2112       C  0.79311047  0.12538922  0.59150006    -0.53200
C2113       C  0.77303630  0.14547679  0.61220669     0.09900
C2114       C  0.78072616  0.18366734  0.60723796     0.20900
C2115       C  0.79579103  0.16576429  0.54876279    -0.54000
C2116       C  0.77425009  0.18622193  0.56712854     0.10000
C2117       C  0.84086942  0.16725813  0.59342008    -0.53500
C2118       C  0.82211668  0.18774267  0.61550316     0.10600
H2119       H  0.79042583  0.09804411  0.59116478     0.15100
H2120       H  0.76406477  0.20068953  0.62355873     0.00900
H2121       H  0.79218643  0.16276950  0.52197520     0.15400
H2122       H  0.86867182  0.16471994  0.59583397     0.15200
C2123       C  0.60092187  0.13381682  0.83156279     0.87000
C2124       C  0.62208420  0.11027727  0.80668820    -0.53200
C2125       C  0.63968032  0.12673597  0.78357487     0.09900
C2126       C  0.63761439  0.16511097  0.78843679     0.20900
C2127       C  0.62979624  0.15719429  0.84822764    -0.54000
C2128       C  0.64898851  0.17377140  0.82538446     0.10000
C2129       C  0.57986358  0.15711596  0.80974476    -0.53500
C2130       C  0.59914199  0.17276814  0.78683508     0.10600
H2131       H  0.62129166  0.08280149  0.80590716     0.15100
H2132       H  0.65296574  0.17770684  0.76912335     0.00900
H2133       H  0.63732667  0.15821434  0.87413043     0.15400
H2134       H  0.55178420  0.15843965  0.81026283     0.15200
C2135       C  0.83835459  0.20352756  0.65069100     0.30500
C2136       C  0.83781983  0.23251824  0.71698804     0.30500
C2137       C  0.82170622  0.18342396  0.67777033    -0.05700
C2138       C  0.87710699  0.20981604  0.66704460    -0.06500
C2139       C  0.82400850  0.23883435  0.65695991    -0.06300
C2140       C  0.82222900  0.19754132  0.71077364    -0.05700
C2141       C  0.87684848  0.22542753  0.70091151    -0.06500
C2142       C  0.82299276  0.25276969  0.68998218    -0.06300
C2143       C  0.82536797  0.17080584  0.73063366    -0.31700
N2144       N  0.82293180  0.14138040  0.71190011     0.14800
C2145       C  0.82249398  0.14889061  0.67961343    -0.31700
H2146       H  0.82671952  0.13078137  0.65866133     0.16700
C2147       C  0.91291572  0.22983302  0.70955921    -0.30700
N2148       N  0.93538847  0.21740181  0.68411217     0.13500
C2149       C  0.91329455  0.20517169  0.65852877    -0.30700
C2150       C  0.82595689  0.28712379  0.68865535    -0.31000
N2151       N  0.82769905  0.29494535  0.65659083     0.14000
H2152       H  0.83124769  0.30474924  0.70984731     0.16600
C2153       C  0.82903577  0.26570281  0.63743972    -0.31000
H2154       H  0.83831340  0.26416890  0.61184060     0.16600
H2155       H  0.92253285  0.19396254  0.63467137     0.16600
H2156       H  0.83422038  0.17246809  0.75620826     0.16700
H2157       H  0.92180890  0.24117196  0.73337911     0.16600
C2158       C  0.81200184  0.37137762  0.60886868     0.87000
C2159       C  0.79280861  0.34641120  0.58346991    -0.53200
C2160       C  0.77423812  0.32227843  0.59767931     0.09900
C2161       C  0.77472742  0.32549735  0.63582582     0.20900
C2162       C  0.78255160  0.38653625  0.63221954    -0.54000
C2163       C  0.76268531  0.36224800  0.64622143     0.10000
C2164       C  0.83234557  0.34904108  0.63182272    -0.53500
C2165       C  0.81294405  0.32459356  0.64467609     0.10600
H2166       H  0.79473453  0.34686776  0.55640571     0.15100
H2167       H  0.75943477  0.30510631  0.64694689     0.00900
H2168       H  0.77780064  0.41313094  0.63738838     0.15400
H2169       H  0.85971947  0.35108216  0.63695390     0.15200
C2170       C  0.80367903  0.06410937  0.75941231     0.87000
C2171       C  0.78494208  0.08889997  0.78533307    -0.53200
C2172       C  0.76715557  0.11351716  0.77161894     0.09900
C2173       C  0.76882044  0.11145203  0.73344662     0.20900
C2174       C  0.77470122  0.05027999  0.73519007    -0.54000
C2175       C  0.75595919  0.07528472  0.72204525     0.10000
C2176       C  0.82557523  0.08710445  0.73730198    -0.53500
C2177       C  0.80721323  0.11204609  0.72461442     0.10600
H2178       H  0.78692917  0.08796590  0.81234768     0.15100
H2179       H  0.75449445  0.13237473  0.72279446     0.00900
H2180       H  0.77032691  0.02393117  0.72806560     0.15400
H2181       H  0.85292252  0.08514331  0.73209050     0.15200
C2182       C  0.67071227  0.35412976  0.70480267     0.30500
C2183       C  0.73002333  0.36665725  0.66819141     0.30500
C2184       C  0.67305994  0.33766912  0.66939255    -0.05700
C2185       C  0.67768718  0.39436357  0.69676899    -0.06500
C2186       C  0.70606327  0.34412426  0.72010048    -0.06300
C2187       C  0.70231844  0.34490296  0.65091783    -0.05700
C2188       C  0.70883976  0.39935847  0.67818983    -0.06500
C2189       C  0.73511455  0.35035647  0.70134217    -0.06300
C2190       C  0.69309762  0.34277373  0.61783211    -0.31700
N2191       N  0.66053510  0.33092941  0.61522678     0.14800
C2192       C  0.64754022  0.32982270  0.64655554    -0.31700
H2193       H  0.62065691  0.32842104  0.65264420     0.16700
C2194       C  0.71091649  0.43314893  0.66997200    -0.30700
N2195       N  0.68294137  0.45136779  0.68187357     0.13500
C2196       C  0.66282785  0.42814991  0.69879101    -0.30700
C2197       C  0.76277611  0.33460680  0.71522305    -0.31000
N2198       N  0.75219372  0.31656430  0.74114541     0.14000
H2199       H  0.78900463  0.33788553  0.70736744     0.16600
C2200       C  0.71813250  0.32595694  0.74641538    -0.31000
H2201       H  0.70310052  0.32193380  0.76860610     0.16600
H2202       H  0.63905669  0.43493413  0.71203032     0.16600
H2203       H  0.70797189  0.35277593  0.59777619     0.16700
H2204       H  0.73195342  0.44407816  0.65627066     0.16600
C2205       C  0.60904754  0.30767054  0.53674433     0.87000
C2206       C  0.62990951  0.33105787  0.56209684    -0.53200
C2207       C  0.64573522  0.31440717  0.58578228     0.09900
C2208       C  0.64267278  0.27608277  0.58074844     0.20900
C2209       C  0.63764954  0.28399109  0.52082634    -0.54000
C2210       C  0.65518251  0.26715348  0.54397026     0.10000
C2211       C  0.58608982  0.28506629  0.55824618    -0.53500
C2212       C  0.60381534  0.26902619  0.58147212     0.10600
H2213       H  0.63040929  0.35851366  0.56257062     0.15100
H2214       H  0.65680592  0.26328481  0.60032212     0.00900
H2215       H  0.64603195  0.28316236  0.49501998     0.15400
H2216       H  0.55800402  0.28436991  0.55718773     0.15200
C2217       C  0.82228145  0.28925516  0.80201364     0.87000
C2218       C  0.79792291  0.31228755  0.78281391    -0.53200
C2219       C  0.77553992  0.29645823  0.76127360     0.09900
C2220       C  0.78029404  0.25670126  0.76077011     0.20900
C2221       C  0.79657459  0.26626855  0.81983672    -0.54000
C2222       C  0.77310557  0.24975823  0.79980650     0.10000
C2223       C  0.84164472  0.26647803  0.77508289    -0.53500
C2224       C  0.82143569  0.24971036  0.75178174     0.10600
H2225       H  0.79772635  0.33969893  0.78651058     0.15100
H2226       H  0.76257517  0.24266478  0.74299992     0.00900
H2227       H  0.79378340  0.26586465  0.84663074     0.15400
H2228       H  0.86968510  0.26608121  0.77305169     0.15200
C2229       C  0.68673865  0.24438384  0.53832709     0.30500
C2230       C  0.74348556  0.20469153  0.54924184     0.30500
C2231       C  0.67984966  0.21165026  0.55545095    -0.05700
C2232       C  0.70586252  0.23183403  0.50516176    -0.06500
C2233       C  0.71636851  0.26090076  0.55806267    -0.06300
C2234       C  0.70761398  0.19151983  0.56096755    -0.05700
C2235       C  0.73568419  0.21146865  0.50935113    -0.06500
C2236       C  0.74407520  0.24091983  0.56436428    -0.06300
C2237       C  0.69364084  0.16417548  0.57681273    -0.31700
N2238       N  0.65961779  0.16999666  0.58586580     0.14800
C2239       C  0.65089224  0.19741016  0.56941174    -0.31700
H2240       H  0.62510972  0.20547450  0.56511859     0.16700
C2241       C  0.74782968  0.20526670  0.97450574    -0.30700
N2242       N  0.72673025  0.22042570  0.95154136     0.13500
C2243       C  0.70049199  0.23494236  0.97053069    -0.30700
C2244       C  0.76973008  0.26199085  0.57704103    -0.31000
N2245       N  0.75835043  0.29423197  0.57879322     0.14000
H2246       H  0.79547038  0.25425623  0.58177553     0.16600
C2247       C  0.72671709  0.29389892  0.56467015    -0.31000
H2248       H  0.71296210  0.31572569  0.55744696     0.16600
H2249       H  0.67911919  0.24787647  0.95997294     0.16600
H2250       H  0.70707689  0.14075097  0.57896525     0.16700
H2251       H  0.77044786  0.19054421  0.96710379     0.16600
C2252       C  0.68181843  0.19535445  0.83091333     0.30500
C2253       C  0.74066356  0.23155909  0.81613684     0.30500
C2254       C  0.67641486  0.22922028  0.81507282    -0.05700
C2255       C  0.70235264  0.20697894  0.86283635    -0.06500
C2256       C  0.71043736  0.17694808  0.80990333    -0.06300
C2257       C  0.70555238  0.24513786  0.80382109    -0.05700
C2258       C  0.73311301  0.22592560  0.85684255    -0.06500
C2259       C  0.73910732  0.19562236  0.80185256    -0.06300
C2260       C  0.69332599  0.26190600  0.77657561    -0.31700
N2261       N  0.65799276  0.26441941  0.77727618     0.14800
C2262       C  0.64787277  0.24410470  0.80166242    -0.31700
H2263       H  0.62156399  0.23988464  0.80962308     0.16700
C2264       C  0.74673306  0.23142713  0.89068836    -0.30700
N2265       N  0.72605857  0.21647891  0.91473910     0.13500
C2266       C  0.69889144  0.20224334  0.89710777    -0.30700
C2267       C  0.76423687  0.17373896  0.79044272    -0.31000
N2268       N  0.75208787  0.14182313  0.79077556     0.14000
H2269       H  0.79032886  0.18078171  0.78549726     0.16600
C2270       C  0.72013406  0.14344514  0.80511493    -0.31000
H2271       H  0.70556712  0.12218290  0.81338728     0.16600
H2272       H  0.67747375  0.18945917  0.90857932     0.16600
H2273       H  0.70892313  0.26740927  0.75542286     0.16700
H2274       H  0.76996456  0.24577913  0.89704421     0.16600
O2275       O  0.98295164  0.01502802  0.02107698    -0.74800
O2276       O  0.52642611  0.49561312  0.98546590    -0.53700
C2277       C  0.51006327  0.00955845  0.01256461     0.79000
O2278       O  0.86622392  0.39080436  0.96952494    -0.59400
O2279       O  0.82404279  0.42846296  0.97073410    -0.52400
C2280       C  0.84040359  0.40571088  0.98492230     0.71000
O2281       O  0.98804623  0.38789787  0.97376912    -0.73900
O2282       O  0.52568062  0.41968666  0.95912479    -0.54500
C2283       C  0.51306310  0.39340028  0.97193284     0.77000
O2284       O  0.86427325  0.99919789  0.51065524    -0.59100
O2285       O  0.83047973  0.01632556  0.97151023    -0.52200
C2286       C  0.84475725  0.02410214  0.99970110     0.73600
Zr2287     Zr  0.92688648  0.00541068  0.99807977     2.54700
O2288       O  0.91966207  0.00876838  0.55903315    -0.79600
O2289       O  0.92508475  0.06582108  0.01426284    -0.93100
Zr2290     Zr  0.92858159  0.40637475  0.96931801     2.64700
O2291       O  0.93688522  0.39105060  0.52197758    -0.98000
O2292       O  0.92887230  0.34524541  0.95725426    -0.80100
O2293       O  0.96074814  0.45649533  0.98299264    -0.83400
O2294       O  0.89349882  0.45339734  0.98363651    -2.18100
O2295       O  0.86816924  0.04823302  0.89909478    -0.66800
O2296       O  0.82866226  0.00667378  0.89897345    -0.51400
C2297       C  0.84228981  0.03189047  0.88545657     0.71900
O2298       O  0.98113515  0.42394712  0.84906139    -0.59700
O2299       O  0.52758501  0.44036683  0.88680505    -0.51700
C2300       C  0.51647612  0.42699703  0.85842369     0.73800
O2301       O  0.86448184  0.42987094  0.86517596    -0.71100
O2302       O  0.82804983  0.41741433  0.90420859    -0.49800
C2303       C  0.84312148  0.40911079  0.87642029     0.75100
O2304       O  0.98790277  0.05083651  0.89925030    -0.66500
O2305       O  0.53424067  0.50957489  0.91483934    -0.53700
C2306       C  0.50973202  0.04221724  0.89866694     0.73500
Zr2307     Zr  0.92909261  0.03092114  0.90472680     2.77500
O2308       O  0.93365441  0.04094221  0.84539095    -0.97200
O2309       O  0.92860001  0.09140207  0.92051238    -0.78000
Zr2310     Zr  0.92582629  0.42767737  0.87529486     2.70100
O2311       O  0.92114117  0.42224966  0.81465615    -0.79300
O2312       O  0.92593483  0.36611109  0.86739282    -0.98400
Zr2313     Zr  0.99356041  0.46916243  0.93476190     2.21500
Zr2314     Zr  0.85636598  0.46412889  0.93633833     2.11100
O2315       O  0.89179334  0.47625856  0.88711513    -2.47000
O2316       O  0.95888167  0.47808041  0.88697856    -0.79100
O2317       O  0.89435680  0.01989128  0.95143697    -0.69700
O2318       O  0.96151000  0.41811249  0.92114607    -2.32200
O2319       O  0.96188589  0.01784572  0.95183452    -2.28400
O2320       O  0.89344013  0.41598936  0.92319664    -0.73000
H2321       H  0.88213936  0.44191021  0.50380981     0.79000
H2322       H  0.97666989  0.39955395  0.91436884     0.80100
H2323       H  0.88096632  0.48250965  0.86675916     0.82300
H2324       H  0.97694910  0.03656905  0.95877857     0.79900
H2325       H  0.94511729  0.33653936  0.97355995     0.42900
H2326       H  0.95053991  0.36021634  0.86319828     0.41900
H2327       H  0.91462285  0.44517708  0.80868610     0.41600
H2328       H  0.94831268  0.06150362  0.84457483     0.39500
H2329       H  0.90921619  0.09445116  0.93683108     0.42600
H2330       H  0.94357744  0.07588280  0.00070338     0.37400
H2331       H  0.94129272  0.45641545  0.55517415     0.43500
H2332       H  0.91740987  0.40225353  0.53434496     0.40000
H2333       H  0.94842540  0.02243709  0.83557589     0.44900
H2334       H  0.94515325  0.07538109  0.50723625     0.43600
H2335       H  0.93289096  0.36645436  0.52296561     0.43700
H2336       H  0.92073107  0.35817648  0.88985212     0.44100
C2337       C  0.84653505  0.31151461  0.82423708    -0.04800
C2338       C  0.84237703  0.31356965  0.85939457    -0.01900
C2339       C  0.83740756  0.34541014  0.87662159     0.03100
C2340       C  0.84125971  0.37505113  0.85899306    -0.04800
C2341       C  0.85173100  0.37190223  0.82482945    -0.01900
C2342       C  0.85999754  0.34016252  0.80956940     0.03100
C2343       C  0.84626521  0.28360719  0.87784525     0.37700
C2344       C  0.84916841  0.40027638  0.80387461     0.37700
C2345       C  0.87391678  0.33745117  0.77560527     0.36100
C2346       C  0.82586690  0.34670278  0.91124679     0.36100
N2347       N  0.88504616  0.33568981  0.74854729    -0.38700
N2348       N  0.81537610  0.34625171  0.93843449    -0.38700
N2349       N  0.84661683  0.42256703  0.78685952    -0.38100
N2350       N  0.84947435  0.25986541  0.89282373    -0.38200
C2351       C  0.58630790  0.32907983  0.51540350    -0.04800
C2352       C  0.56737222  0.35597429  0.53245084    -0.01900
C2353       C  0.55229901  0.38077452  0.51445612     0.03100
C2354       C  0.53683420  0.37024602  0.98645397    -0.04800
C2355       C  0.55681362  0.34725736  0.96625312    -0.01900
C2356       C  0.57797050  0.32368574  0.98121115     0.03100
C2357       C  0.56109858  0.35735062  0.56855612     0.37700
C2358       C  0.55446002  0.34712757  0.92999194     0.37700
C2359       C  0.59547798  0.29862728  0.95921047     0.36100
C2360       C  0.53792062  0.41083600  0.53231725     0.36100
N2361       N  0.60860606  0.27902241  0.94041884    -0.38700
N2362       N  0.52667892  0.43471168  0.54668192    -0.38700
N2363       N  0.55240878  0.34680114  0.90109794    -0.38100
N2364       N  0.55570305  0.35829684  0.59715780    -0.38200
C2365       C  0.82435720  0.03950063  0.77937495    -0.04800
C2366       C  0.80485529  0.01611599  0.79722884    -0.01900
C2367       C  0.80842031  0.01513602  0.83233134     0.03100
C2368       C  0.83237480  0.03733003  0.85012230    -0.04800
C2369       C  0.85324342  0.05862158  0.83129342    -0.01900
C2370       C  0.85335213  0.05426405  0.79628795     0.03100
C2371       C  0.78167368  0.99225265  0.77953944     0.37700
C2372       C  0.87367141  0.08613319  0.84704304     0.37700
C2373       C  0.88440923  0.06310175  0.77825009     0.36100
C2374       C  0.80253629  0.47802971  0.83633854     0.36100
N2375       N  0.90967533  0.06987244  0.76431292    -0.38700
N2376       N  0.78940735  0.45258418  0.84174746    -0.38700
N2377       N  0.88962669  0.10845472  0.85935711    -0.38100
N2378       N  0.76327925  0.97260639  0.76605005    -0.38200
C2379       C  0.83580275  0.39525193  0.51786252    -0.04800
C2380       C  0.85546494  0.37139910  0.53382614    -0.01900
C2381       C  0.86027123  0.37560810  0.56854600     0.03100
C2382       C  0.83542530  0.39395101  0.58869735    -0.04800
C2383       C  0.81899316  0.42043033  0.57363529    -0.01900
C2384       C  0.81761007  0.42042407  0.53840226     0.03100
C2385       C  0.86819181  0.34094160  0.51560774     0.37700
C2386       C  0.80619030  0.44910655  0.59444915     0.37700
C2387       C  0.79609618  0.44561625  0.52430092     0.36100
C2388       C  0.88954940  0.35963749  0.58310667     0.36100
N2389       N  0.77849240  0.46561711  0.51347255    -0.38700
N2390       N  0.91354139  0.34729409  0.59419385    -0.38700
N2391       N  0.79643416  0.47251760  0.61069209    -0.38100
N2392       N  0.88247963  0.32654979  0.00811272    -0.38200
C2393       C  0.57605825  0.11183262  0.85120797    -0.04800
C2394       C  0.55492978  0.08761994  0.83216734    -0.01900
C2395       C  0.53581453  0.06328064  0.84817736     0.03100
C2396       C  0.53463890  0.06432881  0.88323478    -0.04800
C2397       C  0.55312597  0.08914153  0.90263035    -0.01900
C2398       C  0.57309666  0.11355731  0.88681518     0.03100
C2399       C  0.55204878  0.08746468  0.79578605     0.37700
C2400       C  0.55081523  0.08986408  0.93895536     0.37700
C2401       C  0.58640106  0.14203279  0.90756321     0.36100
C2402       C  0.51750443  0.03656660  0.82843885     0.36100
N2403       N  0.59607791  0.16467340  0.92498590    -0.38700
N2404       N  0.53373666  0.49874494  0.81860049    -0.38700
N2405       N  0.54898761  0.09026478  0.96790164    -0.38100
N2406       N  0.54963124  0.08711116  0.76690274    -0.38200
C2407       C  0.83596495  0.05129157  0.51634262    -0.04800
C2408       C  0.84509987  0.05590967  0.55062960    -0.01900
C2409       C  0.85125159  0.08844961  0.56534251     0.03100
C2410       C  0.84048812  0.11660417  0.54855294    -0.04800
C2411       C  0.83745678  0.11251768  0.51339100    -0.01900
C2412       C  0.83936362  0.08727579  0.99858142     0.03100
C2413       C  0.84583220  0.02756177  0.57176137     0.37700
C2414       C  0.85259218  0.14820666  0.99507496     0.37700
C2415       C  0.82742249  0.08520942  0.96430973     0.36100
C2416       C  0.86468337  0.09276026  0.59915566     0.36100
N2417       N  0.81641734  0.08499058  0.93748438    -0.38700
N2418       N  0.87600539  0.09557291  0.62591281    -0.38700
N2419       N  0.85904962  0.17105076  0.97951692    -0.38100
N2420       N  0.84665122  0.00532695  0.58901247    -0.38200
C2421       C  0.57359882  0.36168230  0.78817616    -0.04800
C2422       C  0.59118090  0.37706161  0.81695053    -0.01900
C2423       C  0.57385605  0.40009028  0.83989995     0.03100
C2424       C  0.54078605  0.41176851  0.83215064    -0.04800
C2425       C  0.52876058  0.40475898  0.79896605    -0.01900
C2426       C  0.54375084  0.37873617  0.77782219     0.03100
C2427       C  0.62801882  0.37227331  0.82165909     0.37700
C2428       C  0.50306610  0.42647049  0.78534203     0.37700
C2429       C  0.52932449  0.37168543  0.74465593     0.36100
C2430       C  0.59087596  0.41273567  0.87054395     0.36100
N2431       N  0.51727917  0.36632339  0.71838586    -0.38700
N2432       N  0.60450746  0.42301319  0.89488640    -0.38700
N2433       N  0.97833979  0.44157805  0.77180045    -0.38100
N2434       N  0.65746757  0.36900423  0.82532412    -0.38200
C2435       C  0.57192003  0.07680121  0.58066641    -0.04800
C2436       C  0.54298577  0.05868707  0.59225446    -0.01900
C2437       C  0.52836567  0.03193092  0.57182768     0.03100
C2438       C  0.54023973  0.02481458  0.53834498    -0.04800
C2439       C  0.57252950  0.03809423  0.52918547    -0.01900
C2440       C  0.58966376  0.06165263  0.55157953     0.03100
C2441       C  0.52983993  0.06525020  0.62621626     0.37700
C2442       C  0.58422124  0.02368321  0.99786595     0.37700
C2443       C  0.62658345  0.06668755  0.54620826     0.36100
C2444       C  0.99838111  0.01145861  0.59168906     0.36100
N2445       N  0.65604428  0.07031073  0.54197562    -0.38700
N2446       N  0.97676897  0.99597089  0.60398533    -0.38700
N2447       N  0.59687390  0.01364610  0.97277078    -0.38100
N2448       N  0.51936579  0.07015212  0.65334862    -0.38200
C2449       C  0.58681410  0.60175807  0.10762057     0.87000
C2450       C  0.61031962  0.62441619  0.08689396    -0.53200
C2451       C  0.63253816  0.64508052  0.10452126     0.09900
C2452       C  0.62601911  0.64351414  0.14369400     0.20900
C2453       C  0.61071101  0.58397624  0.13137617    -0.54000
C2454       C  0.63289780  0.60387138  0.14972049     0.10000
C2455       C  0.56549557  0.62880905  0.12992166    -0.53500
C2456       C  0.58462609  0.65217562  0.14921729     0.10600
H2457       H  0.60945183  0.62418143  0.05972084     0.15100
H2458       H  0.64303894  0.66124556  0.15878743     0.00900
H2459       H  0.61192892  0.55658718  0.13123064     0.15400
H2460       H  0.53778991  0.63182822  0.12755798     0.15200
C2461       C  0.56937340  0.75370289  0.19959538     0.30500
C2462       C  0.56835736  0.68737338  0.16767533     0.30500
C2463       C  0.58512475  0.72524900  0.21797191    -0.05700
C2464       C  0.53039415  0.73760451  0.19304617    -0.06500
C2465       C  0.58414605  0.74872535  0.16420143    -0.06300
C2466       C  0.58373473  0.69234453  0.20273444    -0.05700
C2467       C  0.52970269  0.70397610  0.17609327    -0.06500
C2468       C  0.58411601  0.71597653  0.14869429    -0.06300
C2469       C  0.58017714  0.67144536  0.22885121    -0.31700
N2470       N  0.58314438  0.68948718  0.25861049     0.14800
C2471       C  0.58434653  0.72229368  0.25210849    -0.31700
H2472       H  0.58013220  0.74287314  0.27074612     0.16700
C2473       C  0.99292844  0.69510998  0.17098894    -0.30700
N2474       N  0.97058597  0.72020468  0.18442706     0.13500
C2475       C  0.99272971  0.74551567  0.19786998    -0.30700
C2476       C  0.58294353  0.71954668  0.11464571    -0.31000
N2477       N  0.58371249  0.75263599  0.10855785     0.14000
H2478       H  0.57748936  0.69923434  0.09594173     0.16600
C2479       C  0.58176428  0.77019800  0.13862999    -0.31000
H2480       H  0.57367716  0.79619152  0.14155109     0.16600
H2481       H  0.98357579  0.76898013  0.21021698     0.16600
H2482       H  0.57058526  0.64574911  0.22653363     0.16700
H2483       H  0.98388557  0.67148579  0.15876819     0.16600
C2484       C  0.58876013  0.83592350  0.26224100     0.87000
C2485       C  0.61099283  0.81097460  0.28044583    -0.53200
C2486       C  0.63226363  0.79084396  0.26083044     0.09900
C2487       C  0.62707402  0.79656393  0.22268915     0.20900
C2488       C  0.61340807  0.85553045  0.24026838    -0.54000
C2489       C  0.63497552  0.83687717  0.22027817     0.10000
C2490       C  0.56688756  0.81101430  0.23826767    -0.53500
C2491       C  0.58569574  0.78875170  0.21741533     0.10600
H2492       H  0.60916014  0.80848627  0.30728774     0.15100
H2493       H  0.64401402  0.77998046  0.20620543     0.00900
H2494       H  0.61553608  0.88296956  0.24266357     0.15400
H2495       H  0.53909786  0.80801993  0.24108051     0.15200
C2496       C  0.66434791  0.58695010  0.16872363     0.30500
C2497       C  0.72250565  0.57195207  0.20456451     0.30500
C2498       C  0.66627887  0.60242564  0.20402782    -0.05700
C2499       C  0.67066482  0.54584878  0.17553099    -0.06500
C2500       C  0.70004152  0.59851238  0.15473469    -0.06300
C2501       C  0.69458589  0.59401099  0.22239594    -0.05700
C2502       C  0.70101770  0.54019268  0.19440518    -0.06500
C2503       C  0.72878340  0.58695009  0.17046488    -0.06300
C2504       C  0.68455907  0.59800953  0.25557019    -0.31700
N2505       N  0.65329164  0.61297885  0.25762359     0.14800
C2506       C  0.64122153  0.61359622  0.22618758    -0.31700
H2507       H  0.61502171  0.61750754  0.21973681     0.16700
C2508       C  0.70378659  0.50626192  0.20081428    -0.30700
N2509       N  0.68197235  0.98930681  0.18447864     0.13500
C2510       C  0.65671741  0.51139630  0.17149508    -0.30700
C2511       C  0.75767052  0.60183668  0.15695000    -0.31000
N2512       N  0.74825640  0.62747923  0.13820057     0.14000
H2513       H  0.78381892  0.59413632  0.16125570     0.16600
C2514       C  0.71288451  0.62726631  0.13992583    -0.31000
H2515       H  0.69751700  0.64874308  0.13549288     0.16600
H2516       H  0.63843193  0.00582375  0.15516090     0.16600
H2517       H  0.69826298  0.58849364  0.27628179     0.16700
H2518       H  0.73044509  0.99624864  0.20998138     0.16600
C2519       C  0.81856838  0.64252144  0.07178909     0.87000
C2520       C  0.79267747  0.62388105  0.09416016    -0.53200
C2521       C  0.77152148  0.64351588  0.11424751     0.09900
C2522       C  0.77803436  0.68188288  0.10884208     0.20900
C2523       C  0.79443849  0.66378421  0.05082562    -0.54000
C2524       C  0.77189062  0.68385131  0.06856713     0.10000
C2525       C  0.83894564  0.66728041  0.09604782    -0.53500
C2526       C  0.81925299  0.68735051  0.11749142     0.10600
H2527       H  0.79095868  0.59649021  0.09411365     0.15100
H2528       H  0.76070199  0.69856438  0.12479852     0.00900
H2529       H  0.79145694  0.66037119  0.02396783     0.15400
H2530       H  0.86679789  0.66571520  0.09888060     0.15200
C2531       C  0.59802225  0.63847279  0.33382349     0.87000
C2532       C  0.62003517  0.61456624  0.30991171    -0.53200
C2533       C  0.63797484  0.63047363  0.28661336     0.09900
C2534       C  0.63541547  0.66897049  0.29070231     0.20900
C2535       C  0.62618905  0.66257216  0.35072879    -0.54000
C2536       C  0.64581977  0.67884212  0.32788521     0.10000
C2537       C  0.57730749  0.66093877  0.31101934    -0.53500
C2538       C  0.59695861  0.67612042  0.28815223     0.10600
H2539       H  0.61939251  0.58712134  0.30974067     0.15100
H2540       H  0.65093119  0.68133195  0.27134993     0.00900
H2541       H  0.63247415  0.66463539  0.37702240     0.15400
H2542       H  0.54921642  0.66202809  0.31088933     0.15200
C2543       C  0.83497184  0.70415441  0.15230686     0.30500
C2544       C  0.83448021  0.73461878  0.21776131     0.30500
C2545       C  0.81902227  0.68428321  0.18000334    -0.05700
C2546       C  0.87373870  0.71150714  0.16811411    -0.06500
C2547       C  0.82003349  0.73927870  0.15763607    -0.06300
C2548       C  0.81993247  0.69903587  0.21269983    -0.05700
C2549       C  0.87353265  0.72793994  0.20161178    -0.06500
C2550       C  0.81906523  0.75397607  0.19030637    -0.06300
C2551       C  0.82481295  0.67272510  0.23300437    -0.31700
N2552       N  0.82274633  0.64276942  0.21498280     0.14800
C2553       C  0.82081514  0.64983409  0.18257561    -0.31700
H2554       H  0.82430643  0.63142534  0.16178425     0.16700
C2555       C  0.90962028  0.73285837  0.20993669    -0.30700
N2556       N  0.93199114  0.72000427  0.18458994     0.13500
C2557       C  0.90984783  0.70697676  0.15942586    -0.30700
C2558       C  0.82189639  0.78828693  0.18804038    -0.31000
N2559       N  0.82363826  0.79538096  0.15574489     0.14000
H2560       H  0.82704163  0.80641730  0.20882252     0.16600
C2561       C  0.82491298  0.76566127  0.13737098    -0.31000
H2562       H  0.83429977  0.76347630  0.11182022     0.16600
H2563       H  0.91900540  0.69518724  0.13578664     0.16600
H2564       H  0.83199083  0.67521499  0.25915251     0.16700
H2565       H  0.91860229  0.74472228  0.23350259     0.16600
C2566       C  0.80726969  0.86984583  0.10536472     0.87000
C2567       C  0.78816723  0.84392152  0.08090984    -0.53200
C2568       C  0.77005263  0.82023262  0.09600557     0.09900
C2569       C  0.77047655  0.82485756  0.13406249     0.20900
C2570       C  0.77738006  0.88552237  0.12785970    -0.54000
C2571       C  0.75810234  0.86173616  0.14305753     0.10000
C2572       C  0.82790476  0.84886982  0.12930376    -0.53500
C2573       C  0.80873095  0.82465559  0.14305439     0.10600
H2574       H  0.78982917  0.84345267  0.05373293     0.15100
H2575       H  0.75527195  0.80480979  0.14582940     0.00900
H2576       H  0.77102340  0.91183486  0.13120297     0.15400
H2577       H  0.85560893  0.85112585  0.13316394     0.15200
C2578       C  0.79917628  0.57204928  0.26976723     0.87000
C2579       C  0.77734354  0.59883516  0.28994746    -0.53200
C2580       C  0.76199021  0.62086565  0.27138863     0.09900
C2581       C  0.76726930  0.61402411  0.23387213     0.20900
C2582       C  0.77156183  0.55445822  0.24542760    -0.54000
C2583       C  0.75486535  0.57694482  0.22643496     0.10000
C2584       C  0.82319925  0.59164229  0.24644851    -0.53500
C2585       C  0.80627531  0.61405353  0.22841066     0.10600
H2586       H  0.77517303  0.60123305  0.31717537     0.15100
H2587       H  0.75396911  0.63320891  0.21969026     0.00900
H2588       H  0.76349507  0.52839870  0.24488031     0.15400
H2589       H  0.85125191  0.59028347  0.24661029     0.15200
C2590       C  0.66662119  0.85490915  0.20222651     0.30500
C2591       C  0.72564041  0.86679733  0.16499371     0.30500
C2592       C  0.66825890  0.83892507  0.16656213    -0.05700
C2593       C  0.67444112  0.89510183  0.19491245    -0.06500
C2594       C  0.70179903  0.84416698  0.21678437    -0.06300
C2595       C  0.69738337  0.84579046  0.14788287    -0.05700
C2596       C  0.70540200  0.89972193  0.17585750    -0.06500
C2597       C  0.73070122  0.85020702  0.19785710    -0.06300
C2598       C  0.68847941  0.84209028  0.11479636    -0.31700
N2599       N  0.65622061  0.82931280  0.11259052     0.14800
C2600       C  0.64296722  0.82949315  0.14399091    -0.31700
H2601       H  0.61618522  0.82716444  0.15013593     0.16700
C2602       C  0.70867167  0.93369622  0.16894258    -0.30700
N2603       N  0.68153570  0.95226876  0.18198253     0.13500
C2604       C  0.66085157  0.92927108  0.19846724    -0.30700
C2605       C  0.75843694  0.83514200  0.21202592    -0.31000
N2606       N  0.74789449  0.81739693  0.23809496     0.14000
H2607       H  0.78470676  0.83921512  0.20469329     0.16600
C2608       C  0.71388281  0.82664702  0.24334468    -0.31000
H2609       H  0.69917185  0.82367776  0.26593360     0.16600
H2610       H  0.63764989  0.93649739  0.21246347     0.16600
H2611       H  0.70350959  0.85101448  0.09429665     0.16700
H2612       H  0.72992322  0.94456788  0.15550467     0.16600
C2613       C  0.60507727  0.80450491  0.03442382     0.87000
C2614       C  0.62614314  0.82809742  0.05926327    -0.53200
C2615       C  0.64166388  0.81196595  0.08344464     0.09900
C2616       C  0.63867572  0.77352240  0.07915650     0.20900
C2617       C  0.63377414  0.78021429  0.01900206    -0.54000
C2618       C  0.65147450  0.76376397  0.04266703     0.10000
C2619       C  0.58215516  0.78225100  0.05636441    -0.53500
C2620       C  0.59984563  0.76637349  0.07978975     0.10600
H2621       H  0.62690471  0.85551363  0.05912034     0.15100
H2622       H  0.65267125  0.76116010  0.09910852     0.00900
H2623       H  0.64173992  0.77854139  0.99306410     0.15400
H2624       H  0.55406689  0.78165510  0.05538031     0.15200
C2625       C  0.81832474  0.79464829  0.29984785     0.87000
C2626       C  0.79375137  0.81622126  0.27954955    -0.53200
C2627       C  0.77151867  0.79890426  0.25905282     0.09900
C2628       C  0.77657337  0.75948642  0.26070583     0.20900
C2629       C  0.79260725  0.77289680  0.31928941    -0.54000
C2630       C  0.76932566  0.75498713  0.30026344     0.10000
C2631       C  0.83786452  0.77078791  0.27422915    -0.53500
C2632       C  0.81781917  0.75250518  0.25200924     0.10600
H2633       H  0.79315833  0.84369897  0.28179729     0.15100
H2634       H  0.75897640  0.74439029  0.24364106     0.00900
H2635       H  0.78929674  0.77489641  0.34620606     0.15400
H2636       H  0.86589414  0.77102582  0.27188511     0.15200
C2637       C  0.68348571  0.74084738  0.03807005     0.30500
C2638       C  0.74090774  0.70182401  0.04998381     0.30500
C2639       C  0.67685695  0.70794721  0.05523107    -0.05700
C2640       C  0.70360820  0.72872622  0.00532491    -0.06500
C2641       C  0.71253637  0.75759776  0.05847122    -0.06300
C2642       C  0.70490970  0.68814778  0.06111560    -0.05700
C2643       C  0.73372080  0.70882646  0.00992761    -0.06500
C2644       C  0.74054619  0.73798856  0.06523021    -0.06300
C2645       C  0.69128798  0.66112026  0.07781053    -0.31700
N2646       N  0.65714818  0.66666845  0.08672979     0.14800
C2647       C  0.64814794  0.69377756  0.06982298    -0.31700
H2648       H  0.62232953  0.70184564  0.06585897     0.16700
C2649       C  0.74679316  0.71099352  0.47597133    -0.30700
N2650       N  0.72544925  0.72598154  0.45310460     0.13500
C2651       C  0.69919995  0.74024972  0.47218732    -0.30700
C2652       C  0.76616530  0.75959564  0.07695539    -0.31000
N2653       N  0.75439096  0.79163089  0.07801827     0.14000
H2654       H  0.79221438  0.75236539  0.08112105     0.16600
C2655       C  0.72273651  0.79071186  0.06404570    -0.31000
H2656       H  0.70903647  0.81215494  0.05586830     0.16600
H2657       H  0.67764653  0.75293474  0.46168003     0.16600
H2658       H  0.70516368  0.63809567  0.08077043     0.16700
H2659       H  0.76958177  0.69660499  0.46844814     0.16600
C2660       C  0.67824388  0.70133584  0.33357675     0.30500
C2661       C  0.73684195  0.73763609  0.31753069     0.30500
C2662       C  0.67250453  0.73532749  0.31787149    -0.05700
C2663       C  0.69954585  0.71280811  0.36498142    -0.06500
C2664       C  0.70649181  0.68346389  0.31216358    -0.06300
C2665       C  0.70161717  0.75130333  0.30597029    -0.05700
C2666       C  0.73022708  0.73174942  0.35840609    -0.06500
C2667       C  0.73438496  0.70223863  0.30285203    -0.06300
C2668       C  0.68952988  0.76477443  0.27680366    -0.31700
N2669       N  0.65424814  0.76617701  0.27646248     0.14800
C2670       C  0.64407367  0.74789246  0.30237774    -0.31700
H2671       H  0.61769642  0.74349231  0.31004910     0.16700
C2672       C  0.74457028  0.73696878  0.39198861    -0.30700
N2673       N  0.72438292  0.72187913  0.41634151     0.13500
C2674       C  0.69686954  0.70774974  0.39918720    -0.30700
C2675       C  0.75708925  0.68142620  0.28600289    -0.31000
N2676       N  0.74470767  0.64973379  0.28614327     0.14000
H2677       H  0.78193987  0.68881624  0.27745454     0.16600
C2678       C  0.71537423  0.65037299  0.30489553    -0.31000
H2679       H  0.70244371  0.62881301  0.31450583     0.16600
H2680       H  0.67565934  0.69491186  0.41095599     0.16600
H2681       H  0.70528925  0.76842309  0.25521309     0.16700
H2682       H  0.76792912  0.75129589  0.39793341     0.16600
O2683       O  0.98144579  0.50917122  0.52424985    -0.74800
O2684       O  0.52637067  0.99328205  0.48526007    -0.53700
C2685       C  0.51423040  0.51080196  0.51144822     0.79000
O2686       O  0.86776049  0.89035980  0.47327191    -0.59400
O2687       O  0.82704353  0.92957434  0.47309815    -0.52400
C2688       C  0.84208601  0.90621684  0.48769929     0.71000
O2689       O  0.98687737  0.88529860  0.47379300    -0.73900
O2690       O  0.52524632  0.92068539  0.45492500    -0.54500
C2691       C  0.51358519  0.89310026  0.46585614     0.77000
O2692       O  0.86512664  0.49853271  0.01306862    -0.59100
O2693       O  0.83333311  0.50348121  0.48086703    -0.52200
C2694       C  0.84492179  0.51319408  0.51001934     0.73600
Zr2695     Zr  0.92616320  0.49678462  0.50125129     2.54700
O2696       O  0.92202163  0.49426061  0.05599752    -0.79600
O2697       O  0.92209586  0.55673042  0.51892960    -0.93100
Zr2698     Zr  0.92917047  0.90764555  0.47123651     2.64700
O2699       O  0.92700366  0.89974435  0.02642199    -0.98000
O2700       O  0.92762386  0.84623917  0.46321045    -0.80100
O2701       O  0.96095568  0.95773646  0.48601503    -0.83400
O2702       O  0.89453303  0.95496264  0.48570963    -2.18100
O2703       O  0.85968206  0.54122932  0.41524794    -0.66800
O2704       O  0.82242172  0.49863461  0.40758022    -0.51400
C2705       C  0.83514681  0.52625832  0.39820806     0.71900
O2706       O  0.98310602  0.94220255  0.34948108    -0.59700
O2707       O  0.52570129  0.94266206  0.38530182    -0.51700
C2708       C  0.51501226  0.92920315  0.35671100     0.73800
O2709       O  0.86723487  0.93283773  0.36874851    -0.71100
O2710       O  0.82886553  0.91930001  0.40536526    -0.49800
C2711       C  0.84501853  0.91185323  0.37810362     0.75100
O2712       O  0.97951973  0.55371463  0.40232423    -0.66500
O2713       O  0.53013737  0.01317836  0.41541660    -0.53700
C2714       C  0.51029799  0.54340598  0.39965230     0.73500
Zr2715     Zr  0.92243207  0.52998904  0.41105779     2.77500
O2716       O  0.91583910  0.54809681  0.35452911    -0.97200
O2717       O  0.92002340  0.58858284  0.43381505    -0.78000
Zr2718     Zr  0.92912322  0.92877209  0.37628960     2.70100
O2719       O  0.92418845  0.91844296  0.31598310    -0.79300
O2720       O  0.93599597  0.86770402  0.36762148    -0.98400
Zr2721     Zr  0.99501141  0.96882775  0.43804578     2.21500
Zr2722     Zr  0.85864550  0.96465820  0.43719959     2.11100
O2723       O  0.89487394  0.97728993  0.38831776    -2.47000
O2724       O  0.96166568  0.97886075  0.38992402    -0.79100
O2725       O  0.89062679  0.51214950  0.45718928    -0.69700
O2726       O  0.96298110  0.91814625  0.42312633    -2.32200
O2727       O  0.95842337  0.51527648  0.45546477    -2.28400
O2728       O  0.89571098  0.91669306  0.42383434    -0.73000
H2729       H  0.88137216  0.95081087  0.00332301     0.79000
H2730       H  0.97791740  0.89942855  0.41632604     0.80100
H2731       H  0.88507440  0.98429893  0.36770418     0.82300
H2732       H  0.97253823  0.53447758  0.46310353     0.79900
H2733       H  0.92986064  0.84148533  0.43862833     0.42900
H2734       H  0.91858386  0.86035535  0.35057400     0.41900
H2735       H  0.91982462  0.94119666  0.30818832     0.41600
H2736       H  0.92976763  0.56916114  0.35412387     0.39500
H2737       H  0.92656543  0.60210221  0.41477999     0.42600
H2738       H  0.93481587  0.56859455  0.50155251     0.37400
H2739       H  0.92879211  0.97071824  0.05773616     0.43500
H2740       H  0.90734707  0.91222082  0.03721590     0.40000
H2741       H  0.92895785  0.53124748  0.34011994     0.44900
H2742       H  0.94310272  0.57067631  0.02131515     0.43600
H2743       H  0.92142663  0.87548698  0.02799388     0.43700
H2744       H  0.95852011  0.86487700  0.35573443     0.44100
C2745       C  0.84273553  0.81765025  0.32062655    -0.04800
C2746       C  0.84241581  0.81755985  0.35572862    -0.01900
C2747       C  0.83955691  0.84838649  0.37500256     0.03100
C2748       C  0.84231994  0.87907170  0.35891478    -0.04800
C2749       C  0.85007135  0.87808374  0.32412296    -0.01900
C2750       C  0.85462049  0.84700096  0.30609896     0.03100
C2751       C  0.84695322  0.78605784  0.37156466     0.37700
C2752       C  0.85040230  0.90863141  0.30597855     0.37700
C2753       C  0.86531210  0.84582152  0.27108410     0.36100
C2754       C  0.83178652  0.84752837  0.41041900     0.36100
N2755       N  0.87394389  0.84545274  0.24324837    -0.38700
N2756       N  0.82436165  0.84479624  0.43821823    -0.38700
N2757       N  0.85093233  0.93283431  0.29136013    -0.38100
N2758       N  0.85057072  0.76081731  0.38401083    -0.38200
C2759       C  0.58191621  0.82630593  0.01325707    -0.04800
C2760       C  0.56271034  0.85309116  0.03051823    -0.01900
C2761       C  0.54593583  0.87726665  0.01273827     0.03100
C2762       C  0.53772621  0.87130863  0.48161139    -0.04800
C2763       C  0.55518571  0.84491797  0.46332059    -0.01900
C2764       C  0.57471427  0.82165094  0.48046609     0.03100
C2765       C  0.55829550  0.85530690  0.06686610     0.37700
C2766       C  0.55172398  0.84097385  0.42711570     0.37700
C2767       C  0.58684909  0.79129822  0.46184517     0.36100
C2768       C  0.53047972  0.90675575  0.03073206     0.36100
N2769       N  0.59560349  0.76690492  0.44653034    -0.38700
N2770       N  0.51834301  0.93034026  0.04486574    -0.38700
N2771       N  0.54883308  0.83773296  0.39826292    -0.38100
N2772       N  0.55467543  0.85709178  0.09573117    -0.38200
C2773       C  0.81919027  0.55455771  0.29673773    -0.04800
C2774       C  0.81032664  0.52179499  0.30536266    -0.01900
C2775       C  0.81190301  0.51361162  0.33912007     0.03100
C2776       C  0.82635446  0.53695328  0.36416628    -0.04800
C2777       C  0.83793424  0.56871641  0.35467992    -0.01900
C2778       C  0.83778738  0.57599218  0.32081907     0.03100
C2779       C  0.80222146  0.49556340  0.27950239     0.37700
C2780       C  0.84633164  0.59562743  0.38003444     0.37700
C2781       C  0.85290831  0.60802076  0.31214127     0.36100
C2782       C  0.79806975  0.98000433  0.34047763     0.36100
N2783       N  0.86521013  0.63356668  0.30575891    -0.38700
N2784       N  0.78250853  0.95661128  0.34813770    -0.38700
N2785       N  0.85218442  0.61738738  0.40009423    -0.38100
N2786       N  0.79625858  0.47419638  0.25905670    -0.38200
C2787       C  0.83249542  0.90502037  0.01562443    -0.04800
C2788       C  0.84769518  0.87546307  0.02614250    -0.01900
C2789       C  0.85204355  0.87163916  0.06038563     0.03100
C2790       C  0.83074293  0.89085103  0.08373672    -0.04800
C2791       C  0.81918310  0.92235505  0.07453604    -0.01900
C2792       C  0.81839547  0.92894244  0.04037161     0.03100
C2793       C  0.85346123  0.84649786  0.00248608     0.37700
C2794       C  0.80976004  0.94841105  0.10017553     0.37700
C2795       C  0.79981356  0.95858056  0.03137010     0.36100
C2796       C  0.87215380  0.84322402  0.07027155     0.36100
N2797       N  0.78388146  0.98180533  0.02483121    -0.38700
N2798       N  0.88839831  0.82056673  0.07779348    -0.38700
N2799       N  0.80237449  0.96926011  0.12070953    -0.38100
N2800       N  0.88479718  0.82812197  0.51573057    -0.38200
C2801       C  0.57279097  0.61668347  0.35321641    -0.04800
C2802       C  0.55339039  0.59121114  0.33409984    -0.01900
C2803       C  0.53662827  0.56536840  0.34999615     0.03100
C2804       C  0.53402532  0.56718584  0.38500792    -0.04800
C2805       C  0.54783762  0.59512155  0.40428773    -0.01900
C2806       C  0.56765955  0.61981729  0.38856689     0.03100
C2807       C  0.54989779  0.59132954  0.29781266     0.37700
C2808       C  0.54005709  0.59916306  0.43996264     0.37700
C2809       C  0.57855927  0.64983918  0.40853915     0.36100
C2810       C  0.52131124  0.53691780  0.33013726     0.36100
N2811       N  0.58650061  0.67375461  0.42510174    -0.38700
N2812       N  0.51714489  0.00692402  0.32070770    -0.38700
N2813       N  0.53341301  0.60247452  0.46830636    -0.38100
N2814       N  0.54674096  0.59132333  0.26903000    -0.38200
C2815       C  0.83884780  0.55135847  0.01940084    -0.04800
C2816       C  0.84849007  0.55581445  0.05374933    -0.01900
C2817       C  0.85259697  0.58847523  0.06919493     0.03100
C2818       C  0.84141583  0.61644947  0.05225018    -0.04800
C2819       C  0.83993987  0.61267699  0.01706484    -0.01900
C2820       C  0.81457455  0.56907190  0.50871390     0.03100
C2821       C  0.85139702  0.52717464  0.07438461     0.37700
C2822       C  0.78237934  0.62054733  0.50575458     0.37700
C2823       C  0.79255633  0.55558498  0.48140342     0.36100
C2824       C  0.86374313  0.59279532  0.10387026     0.36100
N2825       N  0.77471187  0.54537580  0.45982937    -0.38700
N2826       N  0.87288504  0.59539207  0.13143230    -0.38700
N2827       N  0.75876307  0.63276048  0.49384679    -0.38100
N2828       N  0.85372855  0.50470160  0.09122307    -0.38200
C2829       C  0.57079170  0.86227600  0.28676037    -0.04800
C2830       C  0.58815786  0.87613662  0.31635116    -0.01900
C2831       C  0.57090984  0.89866996  0.33973580     0.03100
C2832       C  0.53931175  0.91298793  0.33101335    -0.04800
C2833       C  0.52804456  0.90712992  0.29733748    -0.01900
C2834       C  0.54207211  0.88061411  0.27620051     0.03100
C2835       C  0.62483395  0.87059094  0.32152970     0.37700
C2836       C  0.50398829  0.93006261  0.28317037     0.37700
C2837       C  0.52823406  0.87437929  0.24266100     0.36100
C2838       C  0.58629277  0.90722448  0.37224759     0.36100
N2839       N  0.51694808  0.86959125  0.21600279    -0.38700
N2840       N  0.59881343  0.91376181  0.39811992    -0.38700
N2841       N  0.97895369  0.94649648  0.27221134    -0.38100
N2842       N  0.65411022  0.86645750  0.32549922    -0.38200
C2843       C  0.56851188  0.57376251  0.08477257    -0.04800
C2844       C  0.53693412  0.55855738  0.09442162    -0.01900
C2845       C  0.52220794  0.53147235  0.07417270     0.03100
C2846       C  0.53661942  0.52130067  0.04214764    -0.04800
C2847       C  0.57081765  0.53185431  0.03557218    -0.01900
C2848       C  0.58736783  0.55611314  0.05781064     0.03100
C2849       C  0.52075744  0.56809778  0.12658088     0.37700
C2850       C  0.58321807  0.53536329  0.49130663     0.37700
C2851       C  0.62466447  0.56025788  0.05423811     0.36100
C2852       C  0.99792455  0.51131082  0.08877238     0.36100
N2853       N  0.65436602  0.56340701  0.05147870    -0.38700
N2854       N  0.97821172  0.49416955  0.10168640    -0.38700
N2855       N  0.59411311  0.52905619  0.46452445    -0.38100
N2856       N  0.50736621  0.57517381  0.15213234    -0.38200
C2857       C  0.59154391  0.60482342  0.60292311     0.87000
C2858       C  0.61445274  0.62954009  0.58427342    -0.53200
C2859       C  0.63622234  0.64911694  0.60336328     0.09900
C2860       C  0.62920474  0.64487023  0.64217983     0.20900
C2861       C  0.61570263  0.58573933  0.62545997    -0.54000
C2862       C  0.63664394  0.60487631  0.64592121     0.10000
C2863       C  0.56931646  0.62981553  0.62675054    -0.53500
C2864       C  0.58768847  0.65242190  0.64768282     0.10600
H2865       H  0.61258844  0.63286119  0.55764176     0.15100
H2866       H  0.64549607  0.66203549  0.65864216     0.00900
H2867       H  0.61778158  0.55833539  0.62328331     0.15400
H2868       H  0.54143634  0.63167363  0.62453494     0.15200
C2869       C  0.57018388  0.75228038  0.70116493     0.30500
C2870       C  0.57078412  0.68662871  0.66745592     0.30500
C2871       C  0.58564924  0.72333834  0.71928613    -0.05700
C2872       C  0.53161490  0.73583509  0.69271817    -0.06500
C2873       C  0.58612725  0.74834118  0.66622607    -0.06300
C2874       C  0.58492157  0.69075421  0.70321915    -0.05700
C2875       C  0.53191623  0.70261136  0.67485615    -0.06500
C2876       C  0.58674084  0.71594965  0.64984518    -0.06300
C2877       C  0.58124134  0.66912426  0.72885073    -0.31700
N2878       N  0.58388035  0.68636841  0.75916649     0.14800
C2879       C  0.58482825  0.71946574  0.75334120    -0.31700
H2880       H  0.58106048  0.73969000  0.77246584     0.16700
C2881       C  0.99486858  0.69646768  0.67157008    -0.30700
N2882       N  0.97324524  0.72200518  0.68537899     0.13500
C2883       C  0.99626057  0.74657001  0.69894045    -0.30700
C2884       C  0.58547684  0.72039721  0.61601013    -0.31000
N2885       N  0.58576559  0.75362065  0.61089131     0.14000
H2886       H  0.58032367  0.70052701  0.59675616     0.16600
C2887       C  0.58375070  0.77048735  0.64128009    -0.31000
H2888       H  0.57514851  0.79623927  0.64484868     0.16600
H2889       H  0.98785891  0.77028813  0.71133618     0.16600
H2890       H  0.57265970  0.64309493  0.72578841     0.16700
H2891       H  0.98514391  0.67332164  0.65892674     0.16600
C2892       C  0.58820574  0.83499167  0.76445090     0.87000
C2893       C  0.61098388  0.81042070  0.78282435    -0.53200
C2894       C  0.63257590  0.79052678  0.76315938     0.09900
C2895       C  0.62702173  0.79598889  0.72502511     0.20900
C2896       C  0.61249310  0.85476926  0.74243184    -0.54000
C2897       C  0.63409839  0.83639805  0.72241561     0.10000
C2898       C  0.56662724  0.80968333  0.74048817    -0.53500
C2899       C  0.58578464  0.78741760  0.71981088     0.10600
H2900       H  0.60929627  0.80790773  0.80965896     0.15100
H2901       H  0.64422603  0.77967859  0.70855084     0.00900
H2902       H  0.61426721  0.88224312  0.74466316     0.15400
H2903       H  0.53874616  0.80700254  0.74280708     0.15200
C2904       C  0.66806502  0.58761198  0.66464009     0.30500
C2905       C  0.72680179  0.57357270  0.69994471     0.30500
C2906       C  0.67005837  0.60281602  0.70000111    -0.05700
C2907       C  0.67523911  0.54645197  0.67106909    -0.06500
C2908       C  0.70333264  0.60021792  0.65069564    -0.06300
C2909       C  0.69872051  0.59479667  0.71795771    -0.05700
C2910       C  0.70592533  0.54135744  0.68963679    -0.06500
C2911       C  0.73258325  0.58930579  0.66617171    -0.06300
C2912       C  0.68959162  0.59900783  0.75114159    -0.31700
N2913       N  0.65856370  0.61416154  0.75358293     0.14800
C2914       C  0.64555918  0.61445657  0.72245824    -0.31700
H2915       H  0.61929908  0.61860238  0.71645961     0.16700
C2916       C  0.70928008  0.50750572  0.69635199    -0.30700
N2917       N  0.67619082  0.98926381  0.68371871     0.13500
C2918       C  0.66174225  0.51165553  0.66761698    -0.30700
C2919       C  0.76054832  0.60702515  0.65442458    -0.31000
N2920       N  0.74989970  0.63337290  0.63725044     0.14000
H2921       H  0.78702050  0.60020252  0.65825246     0.16600
C2922       C  0.71468262  0.63060133  0.63796488    -0.31000
H2923       H  0.69825113  0.65157823  0.63485769     0.16600
H2924       H  0.63326736  0.00642432  0.65385530     0.16600
H2925       H  0.70366033  0.58947544  0.77160090     0.16700
H2926       H  0.72422191  0.99566745  0.70984853     0.16600
C2927       C  0.81754604  0.64846599  0.56912800     0.87000
C2928       C  0.79134155  0.63055413  0.59136781    -0.53200
C2929       C  0.77185073  0.65000240  0.61271351     0.09900
C2930       C  0.77975957  0.68830970  0.60870717     0.20900
C2931       C  0.79750798  0.67454973  0.55032121    -0.54000
C2932       C  0.77393881  0.69253183  0.56867008     0.10000
C2933       C  0.83984200  0.67135760  0.59433735    -0.53500
C2934       C  0.82125408  0.69182122  0.61690753     0.10600
H2935       H  0.78892464  0.60311279  0.59089756     0.15100
H2936       H  0.76319787  0.70501319  0.62545487     0.00900
H2937       H  0.80097527  0.67805096  0.52384408     0.15400
H2938       H  0.86778550  0.67105847  0.59528273     0.15200
C2939       C  0.60551670  0.63322263  0.83200745     0.87000
C2940       C  0.62832210  0.61185194  0.80674630    -0.53200
C2941       C  0.64332915  0.62979933  0.78330330     0.09900
C2942       C  0.63847111  0.66793405  0.78900191     0.20900
C2943       C  0.63243508  0.65847165  0.84870770    -0.54000
C2944       C  0.64978314  0.67681179  0.82612161     0.10000
C2945       C  0.58189591  0.65460335  0.81044853    -0.53500
C2946       C  0.59947135  0.67250416  0.78781586     0.10600
H2947       H  0.63055975  0.58447295  0.80590405     0.15100
H2948       H  0.65248571  0.68196626  0.76982246     0.00900
H2949       H  0.64047656  0.65904503  0.87448361     0.15400
H2950       H  0.55381358  0.65314521  0.81101893     0.15200
C2951       C  0.83760012  0.70834092  0.65176341     0.30500
C2952       C  0.83669206  0.73780913  0.71807358     0.30500
C2953       C  0.82214922  0.68781725  0.67896738    -0.05700
C2954       C  0.87627232  0.71585762  0.66793965    -0.06500
C2955       C  0.82170884  0.74287240  0.65806820    -0.06300
C2956       C  0.82254552  0.70192633  0.71207116    -0.05700
C2957       C  0.87590263  0.73171069  0.70174985    -0.06500
C2958       C  0.82090887  0.75721714  0.69084394    -0.06300
C2959       C  0.82763758  0.67493595  0.73147016    -0.31700
N2960       N  0.82632451  0.64548844  0.71243543     0.14800
C2961       C  0.82476648  0.65337076  0.68035684    -0.31700
H2962       H  0.82945873  0.63560011  0.65909741     0.16700
C2963       C  0.91208677  0.73576423  0.71050289    -0.30700
N2964       N  0.93459191  0.72297697  0.68516019     0.13500
C2965       C  0.91243586  0.71078005  0.65962534    -0.30700
C2966       C  0.82146084  0.79164982  0.68883026    -0.31000
N2967       N  0.82088317  0.79872304  0.65647177     0.14000
H2968       H  0.82626945  0.81000171  0.70953647     0.16600
C2969       C  0.82343761  0.76932571  0.63778077    -0.31000
H2970       H  0.83184429  0.76765043  0.61202396     0.16600
H2971       H  0.92161810  0.69888915  0.63604061     0.16600
H2972       H  0.83530076  0.67658647  0.75747501     0.16700
H2973       H  0.92098664  0.74672127  0.73447556     0.16600
C2974       C  0.80657236  0.87782344  0.61170330     0.87000
C2975       C  0.78946585  0.85402446  0.58370869    -0.53200
C2976       C  0.77030144  0.82866985  0.59527313     0.09900
C2977       C  0.76879221  0.82927084  0.63331408     0.20900
C2978       C  0.77610284  0.89066705  0.63462134    -0.54000
C2979       C  0.75577817  0.86517877  0.64530945     0.10000
C2980       C  0.82621986  0.85404345  0.63388761    -0.53500
C2981       C  0.80652949  0.82834428  0.64400978     0.10600
H2982       H  0.79321324  0.85613796  0.55701308     0.15100
H2983       H  0.75326814  0.80793248  0.64239788     0.00900
H2984       H  0.77214752  0.91665902  0.64334281     0.15400
H2985       H  0.85308637  0.85614131  0.64088480     0.15200
C2986       C  0.80419448  0.57227634  0.76371177     0.87000
C2987       C  0.78322943  0.59859334  0.78576732    -0.53200
C2988       C  0.76714989  0.62154682  0.76867229     0.09900
C2989       C  0.77112876  0.61587023  0.73081591     0.20900
C2990       C  0.77599047  0.55568362  0.73979666    -0.54000
C2991       C  0.75884197  0.57879147  0.72213555     0.10000
C2992       C  0.82742711  0.59262626  0.74051226    -0.53500
C2993       C  0.81002118  0.61609032  0.72439273     0.10600
H2994       H  0.78223874  0.59990776  0.81303278     0.15100
H2995       H  0.75734838  0.63553257  0.71768607     0.00900
H2996       H  0.76833622  0.52953886  0.73830641     0.15400
H2997       H  0.85545418  0.59097174  0.73944765     0.15200
C2998       C  0.66504251  0.85508831  0.70423713     0.30500
C2999       C  0.72324197  0.86824364  0.66699770     0.30500
C3000       C  0.66665225  0.83887983  0.66861998    -0.05700
C3001       C  0.67130007  0.89538653  0.69637352    -0.06500
C3002       C  0.70064665  0.84545906  0.71891357    -0.06300
C3003       C  0.69576752  0.84616156  0.64986575    -0.05700
C3004       C  0.70191735  0.90058062  0.67720285    -0.06500
C3005       C  0.72914788  0.85201204  0.69978775    -0.06300
C3006       C  0.68612051  0.84490354  0.61695350    -0.31700
N3007       N  0.65319569  0.83421057  0.61447503     0.14800
C3008       C  0.64058817  0.83255276  0.64591673    -0.31700
H3009       H  0.61363294  0.83217996  0.65224210     0.16700
C3010       C  0.70340538  0.93407885  0.66847369    -0.30700
N3011       N  0.67586428  0.95220917  0.68119433     0.13500
C3012       C  0.65642033  0.92911500  0.69887081    -0.30700
C3013       C  0.75744903  0.83751095  0.71360369    -0.31000
N3014       N  0.74774541  0.81959917  0.73985162     0.14000
H3015       H  0.78348659  0.84205931  0.70585204     0.16600
C3016       C  0.71356099  0.82829256  0.74545627    -0.31000
H3017       H  0.69914926  0.82496608  0.76816110     0.16600
H3018       H  0.63314948  0.93596648  0.71292825     0.16600
H3019       H  0.70084318  0.85526712  0.59701664     0.16700
H3020       H  0.72377317  0.94503955  0.65400098     0.16600
C3021       C  0.60245694  0.80610878  0.53675928     0.87000
C3022       C  0.62184971  0.83129359  0.56160327    -0.53200
C3023       C  0.63914443  0.81626408  0.58545399     0.09900
C3024       C  0.63884976  0.77787046  0.58113057     0.20900
C3025       C  0.63257019  0.78409537  0.52100741    -0.54000
C3026       C  0.65167953  0.76908735  0.54450585     0.10000
C3027       C  0.58153796  0.78220970  0.55857819    -0.53500
C3028       C  0.60060579  0.76818395  0.58209788     0.10600
H3029       H  0.62020453  0.85866946  0.56166144     0.15100
H3030       H  0.65399617  0.76644870  0.60091302     0.00900
H3031       H  0.64014819  0.78267198  0.49498256     0.15400
H3032       H  0.55356663  0.77930939  0.55758863     0.15200
C3033       C  0.81920919  0.79757946  0.80108176     0.87000
C3034       C  0.79415764  0.81871799  0.78088569    -0.53200
C3035       C  0.77212838  0.80121262  0.76034351     0.09900
C3036       C  0.77821434  0.76176550  0.76149178     0.20900
C3037       C  0.79417980  0.77473284  0.82023116    -0.54000
C3038       C  0.77128820  0.75644897  0.80095719     0.10000
C3039       C  0.83926292  0.77410195  0.77516554    -0.53500
C3040       C  0.81962650  0.75546903  0.75263511     0.10600
H3041       H  0.79312269  0.84618418  0.78330675     0.15100
H3042       H  0.76081020  0.74653360  0.74434408     0.00900
H3043       H  0.79121684  0.77557347  0.84712195     0.15400
H3044       H  0.86729398  0.77463840  0.77304053     0.15200
C3045       C  0.68437281  0.74768496  0.53943964     0.30500
C3046       C  0.74281633  0.71030424  0.55039755     0.30500
C3047       C  0.67891463  0.71492937  0.55686155    -0.05700
C3048       C  0.70374441  0.73555803  0.50629442    -0.06500
C3049       C  0.71346859  0.76553821  0.55915277    -0.06300
C3050       C  0.70748195  0.69596779  0.56236445    -0.05700
C3051       C  0.73444794  0.71645331  0.51044303    -0.06500
C3052       C  0.74230270  0.74666177  0.56513998    -0.06300
C3053       C  0.69464304  0.66805024  0.57813036    -0.31700
N3054       N  0.66036398  0.67237077  0.58717065     0.14800
C3055       C  0.65055460  0.69941565  0.57063505    -0.31700
H3056       H  0.62444349  0.70614011  0.56584412     0.16700
C3057       C  0.74711918  0.70406013  0.97571648    -0.30700
N3058       N  0.72715845  0.72048814  0.95266958     0.13500
C3059       C  0.70061187  0.73475967  0.97133610    -0.30700
C3060       C  0.76845448  0.76919779  0.57341300    -0.31000
N3061       N  0.75626760  0.80108809  0.57424928     0.14000
H3062       H  0.79515240  0.76274035  0.57509180     0.16600
C3063       C  0.72338770  0.79900212  0.56302844    -0.31000
H3064       H  0.70843907  0.81998951  0.55552420     0.16600
H3065       H  0.67987319  0.74842129  0.96059850     0.16600
H3066       H  0.70897256  0.64507775  0.57976235     0.16700
H3067       H  0.76970157  0.68919063  0.96852773     0.16600
C3068       C  0.68173679  0.69950737  0.83217723     0.30500
C3069       C  0.73942482  0.73754925  0.81778698     0.30500
C3070       C  0.67502542  0.73410187  0.81825473    -0.05700
C3071       C  0.70290651  0.70978796  0.86397349    -0.06500
C3072       C  0.71008224  0.68292253  0.80986072    -0.06300
C3073       C  0.70371176  0.75115311  0.80701977    -0.05700
C3074       C  0.73306474  0.72977090  0.85834648    -0.06500
C3075       C  0.73779604  0.70251237  0.80161153    -0.06300
C3076       C  0.69092606  0.76570663  0.77866626    -0.31700
N3077       N  0.65554533  0.76645757  0.77860625     0.14800
C3078       C  0.64603632  0.74682138  0.80366139    -0.31700
H3079       H  0.61980030  0.74115096  0.81089795     0.16700
C3080       C  0.74687837  0.73415952  0.89228509    -0.30700
N3081       N  0.72705578  0.71736926  0.91581744     0.13500
C3082       C  0.70016264  0.70318619  0.89783628    -0.30700
C3083       C  0.76179824  0.68214346  0.78576980    -0.31000
N3084       N  0.75005614  0.65006918  0.78492790     0.14000
H3085       H  0.78700485  0.69016434  0.77879609     0.16600
C3086       C  0.72000839  0.65003055  0.80253885    -0.31000
H3087       H  0.70725781  0.62806242  0.81150832     0.16600
H3088       H  0.67914229  0.68953002  0.90894905     0.16600
H3089       H  0.70639454  0.77007129  0.75707999     0.16700
H3090       H  0.76957919  0.74919468  0.89902564     0.16600
O3091       O  0.97896586  0.51325036  0.02281378    -0.74800
O3092       O  0.52079530  0.99524095  0.98411325    -0.53700
C3093       C  0.51482757  0.50233886  0.01565041     0.79000
O3094       O  0.86142946  0.89927703  0.96173031    -0.59400
O3095       O  0.82197153  0.93868452  0.96969441    -0.52400
C3096       C  0.83708936  0.91305961  0.98003833     0.71000
O3097       O  0.98061334  0.88291177  0.96905464    -0.73900
O3098       O  0.52481816  0.92237681  0.95342820    -0.54500
C3099       C  0.51624457  0.89287151  0.96258894     0.77000
O3100       O  0.86837354  0.49664685  0.52333882    -0.59100
O3101       O  0.82934256  0.50890139  0.97313200    -0.52200
C3102       C  0.84277204  0.51744564  0.00168239     0.73600
Zr3103     Zr  0.92466458  0.50353267  0.99670452     2.54700
O3104       O  0.92712059  0.47715596  0.55742550    -0.79600
O3105       O  0.92040849  0.56407386  0.01146567    -0.93100
Zr3106     Zr  0.92436630  0.90863994  0.96679238     2.64700
O3107       O  0.93784882  0.90529532  0.53133073    -0.98000
O3108       O  0.91910452  0.84753617  0.95735045    -0.80100
O3109       O  0.95981721  0.95605393  0.98351526    -0.83400
O3110       O  0.89283277  0.95744473  0.98327438    -2.18100
O3111       O  0.86156841  0.53666878  0.90743928    -0.66800
O3112       O  0.82340951  0.49555625  0.89883130    -0.51400
C3113       C  0.83763004  0.52242944  0.88928614     0.71900
O3114       O  0.98304542  0.92346509  0.85058395    -0.59700
O3115       O  0.52220518  0.94460069  0.88313140    -0.51700
C3116       C  0.51206512  0.92964921  0.85500571     0.73800
O3117       O  0.86544871  0.94007570  0.86060838    -0.71100
O3118       O  0.82768520  0.92955574  0.89956456    -0.49800
C3119       C  0.84212260  0.92103395  0.87143604     0.75100
O3120       O  0.98078224  0.54928633  0.89519725    -0.66500
O3121       O  0.52123709  0.01588001  0.91165820    -0.53700
C3122       C  0.52601916  0.53669080  0.90121576     0.73500
Zr3123     Zr  0.92369726  0.52567008  0.90209813     2.77500
O3124       O  0.91999210  0.53446825  0.84249666    -0.97200
O3125       O  0.92215236  0.58698122  0.91081865    -0.78000
Zr3126     Zr  0.92616271  0.93421659  0.87321190     2.70100
O3127       O  0.92508689  0.94207172  0.81350990    -0.79300
O3128       O  0.91985707  0.87435404  0.85574633    -0.98400
Zr3129     Zr  0.99437654  0.96814310  0.93600378     2.21500
Zr3130     Zr  0.85789281  0.97189759  0.93560344     2.11100
O3131       O  0.89506034  0.98388981  0.88800633    -2.47000
O3132       O  0.96184434  0.98187126  0.88831279    -0.79100
O3133       O  0.89036232  0.51456517  0.95002230    -0.69700
O3134       O  0.95915787  0.91994180  0.91952686    -2.32200
O3135       O  0.95816922  0.51709897  0.94958197    -2.28400
O3136       O  0.89156726  0.92177511  0.92001795    -0.73000
H3137       H  0.88409781  0.94818037  0.50619757     0.79000
H3138       H  0.97300071  0.90059198  0.91214639     0.80100
H3139       H  0.88544227  0.99142827  0.86766360     0.82300
H3140       H  0.97197830  0.53692108  0.95594180     0.79900
H3141       H  0.91307126  0.84372045  0.93336246     0.42900
H3142       H  0.94233139  0.86781916  0.84517168     0.41900
H3143       H  0.92537226  0.96692451  0.81213577     0.41600
H3144       H  0.93753590  0.55220759  0.83871032     0.39500
H3145       H  0.91107407  0.59128763  0.93313627     0.42600
H3146       H  0.92026758  0.57452853  0.98970040     0.37400
H3147       H  0.91463445  0.98513144  0.56423774     0.43500
H3148       H  0.91765549  0.91651164  0.54250023     0.40000
H3149       H  0.92969196  0.51360443  0.83107601     0.44900
H3150       H  0.93669587  0.55989273  0.53914686     0.43600
H3151       H  0.93594214  0.88112281  0.53585214     0.43700
H3152       H  0.91923581  0.86278959  0.87689666     0.44100
C3153       C  0.84253435  0.82204677  0.82194747    -0.04800
C3154       C  0.83786304  0.82598174  0.85688334    -0.01900
C3155       C  0.83191796  0.85832693  0.87228581     0.03100
C3156       C  0.83799498  0.88717431  0.85397424    -0.04800
C3157       C  0.84956015  0.88261311  0.82012423    -0.01900
C3158       C  0.85576097  0.84996154  0.80566704     0.03100
C3159       C  0.84273149  0.79749646  0.87715295     0.37700
C3160       C  0.85195651  0.91104359  0.79904263     0.37700
C3161       C  0.87026706  0.84536129  0.77202511     0.36100
C3162       C  0.81690115  0.86081272  0.90566941     0.36100
N3163       N  0.88221988  0.84189765  0.74534138    -0.38700
N3164       N  0.80341053  0.86135973  0.93167823    -0.38700
N3165       N  0.85340682  0.93362686  0.78217479    -0.38100
N3166       N  0.84683994  0.77490642  0.89351266    -0.38200
C3167       C  0.57757774  0.82587274  0.51597484    -0.04800
C3168       C  0.55573142  0.85006021  0.53385276    -0.01900
C3169       C  0.53773024  0.87367388  0.51674466     0.03100
C3170       C  0.54265763  0.87242235  0.97783238    -0.04800
C3171       C  0.55758741  0.84384170  0.96047379    -0.01900
C3172       C  0.57736442  0.82082267  0.97798342     0.03100
C3173       C  0.55087442  0.85073540  0.57013127     0.37700
C3174       C  0.55172399  0.83764839  0.92475976     0.37700
C3175       C  0.58834615  0.78962496  0.96012455     0.36100
C3176       C  0.51838892  0.90033742  0.53551050     0.36100
N3177       N  0.59636211  0.76461410  0.94545995    -0.38700
N3178       N  0.50300805  0.92150737  0.55034907    -0.38700
N3179       N  0.54716723  0.83250334  0.89626678    -0.38100
N3180       N  0.54694008  0.85136672  0.59892760    -0.38200
C3181       C  0.82518441  0.55293686  0.78838824    -0.04800
C3182       C  0.81621615  0.51977165  0.79562958    -0.01900
C3183       C  0.81769594  0.51031646  0.82898326     0.03100
C3184       C  0.83141815  0.53316450  0.85481062    -0.04800
C3185       C  0.84406236  0.56494356  0.84617220    -0.01900
C3186       C  0.84476997  0.57292802  0.81260787     0.03100
C3187       C  0.80856398  0.49455844  0.76865770     0.37700
C3188       C  0.85189334  0.59166016  0.87184350     0.37700
C3189       C  0.86088832  0.60476257  0.80463592     0.36100
C3190       C  0.78616259  0.99194306  0.84945073     0.36100
N3191       N  0.87386189  0.63014504  0.79870857    -0.38700
N3192       N  0.76829926  0.97326111  0.86265168    -0.38700
N3193       N  0.85712747  0.61382615  0.89162521    -0.38100
N3194       N  0.80299327  0.47422390  0.74709937    -0.38200
C3195       C  0.83504143  0.90378354  0.52424259    -0.04800
C3196       C  0.85619297  0.88298613  0.54259514    -0.01900
C3197       C  0.85802409  0.88884439  0.57743074     0.03100
C3198       C  0.82935014  0.90360316  0.59493095    -0.04800
C3199       C  0.81114274  0.92785107  0.57792354    -0.01900
C3200       C  0.81297222  0.92741443  0.54261244     0.03100
C3201       C  0.87255331  0.85294720  0.52711512     0.37700
C3202       C  0.78974065  0.95263105  0.59655111     0.37700
C3203       C  0.79020883  0.94988676  0.52608376     0.36100
C3204       C  0.88779156  0.87704703  0.59485412     0.36100
N3205       N  0.77165739  0.96782414  0.51342833    -0.38700
N3206       N  0.91193316  0.86764452  0.60829489    -0.38700
N3207       N  0.77278110  0.97290756  0.61091484    -0.38100
N3208       N  0.85657936  0.82274636  0.98416520    -0.38200
C3209       C  0.58413446  0.60920746  0.85252701    -0.04800
C3210       C  0.56769201  0.58100492  0.83472090    -0.01900
C3211       C  0.55542266  0.55390149  0.85188979     0.03100
C3212       C  0.55288199  0.55708936  0.88689397    -0.04800
C3213       C  0.56535520  0.58621964  0.90514248    -0.01900
C3214       C  0.58084099  0.61254174  0.88808364     0.03100
C3215       C  0.56238332  0.57968547  0.79858159     0.37700
C3216       C  0.56066120  0.58959332  0.94134218     0.37700
C3217       C  0.58794532  0.64434150  0.90697214     0.36100
C3218       C  0.54323895  0.52318720  0.83335912     0.36100
N3219       N  0.59295906  0.66962663  0.92256802    -0.38700
N3220       N  0.50320439  0.01515976  0.81279980    -0.38700
N3221       N  0.55695516  0.59222868  0.97018652    -0.38100
N3222       N  0.55822003  0.57827626  0.76986412    -0.38200
C3223       C  0.83629475  0.54757744  0.52548439    -0.04800
C3224       C  0.85421741  0.56112293  0.55421830    -0.01900
C3225       C  0.85543152  0.59632073  0.56233007     0.03100
C3226       C  0.83243608  0.61841610  0.54688233    -0.04800
C3227       C  0.81127728  0.60334225  0.52004570    -0.01900
C3228       C  0.83461315  0.58037697  0.00116755     0.03100
C3229       C  0.86967431  0.53899702  0.57742825     0.37700
C3230       C  0.84614757  0.64150543  0.99729478     0.37700
C3231       C  0.82150381  0.57798557  0.96734698     0.36100
C3232       C  0.87828034  0.60838613  0.58931230     0.36100
N3233       N  0.80919272  0.57715348  0.94104236    -0.38700
N3234       N  0.89698766  0.61675791  0.61085951    -0.38700
N3235       N  0.85107153  0.66449330  0.98147767    -0.38100
N3236       N  0.88156625  0.52199957  0.59666388    -0.38200
C3237       C  0.56965637  0.86176500  0.78814385    -0.04800
C3238       C  0.58563475  0.87544140  0.81851615    -0.01900
C3239       C  0.56773726  0.89851584  0.84076751     0.03100
C3240       C  0.53714922  0.91347587  0.83031049    -0.04800
C3241       C  0.52724681  0.90747357  0.79627600    -0.01900
C3242       C  0.54240081  0.88103529  0.77578471     0.03100
C3243       C  0.62195598  0.86996056  0.82535494     0.37700
C3244       C  0.50221519  0.92924264  0.78175420     0.37700
C3245       C  0.53178290  0.87596488  0.74102439     0.36100
C3246       C  0.58096483  0.90636013  0.87433255     0.36100
N3247       N  0.52352824  0.87224687  0.71323222    -0.38700
N3248       N  0.59142273  0.91240047  0.90115487    -0.38700
N3249       N  0.98741989  0.94585004  0.77334110    -0.38100
N3250       N  0.65100857  0.86620471  0.83078971    -0.38200
C3251       C  0.57308467  0.57814233  0.57890479    -0.04800
C3252       C  0.54542807  0.55866191  0.59116286    -0.01900
C3253       C  0.52955630  0.53299292  0.57020621     0.03100
C3254       C  0.53904995  0.52796716  0.53578486    -0.04800
C3255       C  0.56980041  0.54326265  0.52501416    -0.01900
C3256       C  0.58820686  0.56593235  0.54731165     0.03100
C3257       C  0.53499959  0.56277114  0.62623388     0.37700
C3258       C  0.59037733  0.51569999  0.00774426     0.37700
C3259       C  0.62397321  0.57307865  0.53843064     0.36100
C3260       C  0.00117120  0.50831147  0.58935218     0.36100
N3261       N  0.65239324  0.57855778  0.53090653    -0.38700
N3262       N  0.98197142  0.49103346  0.60272644    -0.38700
N3263       N  0.60638570  0.50264477  0.98594606    -0.38100
N3264       N  0.52689610  0.56579736  0.65424585    -0.38200
loop_ 
_geom_bond_atom_site_label_1 
_geom_bond_atom_site_label_2 
_geom_bond_distance 
_geom_bond_site_symmetry_2 
_ccdc_geom_bond_type 
C1            C2   1.537       .  S
C1            C7   1.585       .  S
C1            C5   1.536       .  S
C1          C395   1.553       .  S
C2            H9   1.085       .  S
C2            C3   1.344       .  D
C3            C4   1.588       .  S
C3          N198   1.475       .  S
C4            C8   1.636       .  S
C4            C6   1.625       .  S
C4           H10   1.108       .  S
C5           H11   1.086       .  S
C5            C6   1.343       .  D
C6           C48   1.602       .  S
C7           H12   1.084       .  S
C7            C8   1.386       .  D
C8           C14   1.658       .  S
C13          C43   1.650       .  S
C13          C15   1.526       .  S
C13          C17   1.519       .  S
C13          C16   1.657       .  S
C14          C18   1.536       .  S
C14          C20   1.531       .  S
C14          C19   1.645       .  S
C15          C23   1.382       .  A
C15          C18   1.400       .  A
C16          C19   1.453       .  A
C16        C1659   1.447   1_455  A
C17          C31   1.381       .  A
C17          C20   1.399       .  A
C18          C21   1.388       .  A
C19        C1657   1.441   1_455  A
C20          C28   1.382       .  A
C21          N22   1.354       .  A
C21          H34   1.078       .  S
N22          C90   1.446       .  S
N22          C23   1.347       .  A
C23          H24   1.077       .  S
C25        C1651   1.449       .  A
C25          N26   1.398       .  A
C25          H35   1.082       .  S
N26          C27   1.394       .  A
N26         N108   1.492       .  S
C27        C1648   1.442       .  A
C27          H33   1.082       .  S
C28          N29   1.351       .  A
C28          H30   1.080       .  S
N29         C172   1.442       .  S
N29          C31   1.347       .  A
C31          H32   1.079       .  S
C36          C37   1.554       .  S
C36          C42   1.572       .  S
C36          C40   1.529       .  S
C36         C381   1.554       .  S
C37          H44   1.085       .  S
C37          C38   1.365       .  D
C38          C39   1.569       .  S
C38         N221   1.484       .  S
C39          C43   1.646       .  S
C39          C41   1.635       .  S
C39          H45   1.110       .  S
C40          H46   1.087       .  S
C40          C41   1.337       .  D
C41         C142   1.603       .  S
C42          H47   1.085       .  S
C42          C43   1.376       .  D
C48          C50   1.500       .  S
C48          C52   1.556       .  S
C48          C51   1.685       .  S
C49         C135   1.527       .  S
C49          C53   1.521       .  S
C49          C55   1.532       .  S
C49          C54   1.535       .  S
C50          C58   1.357       .  A
C50          C53   1.378       .  A
C51          C62   1.462       .  A
C51          C54   1.425       .  A
C52          C66   1.404       .  A
C52          C55   1.375       .  A
C53          C56   1.367       .  A
C54          C60   1.390       .  A
C55          C63   1.372       .  A
C56          N57   1.344       .  A
C56          H69   1.077       .  S
N57          C85   1.422       .  S
N57          C58   1.346       .  A
C58          H59   1.062       .  S
C60         N877   1.356   1_545  A
C60         H886   1.079   1_545  S
N61         C876   1.356       .  A
N61         C878   1.407       .  A
N61         N155   1.465       .  S
C62         N877   1.406   1_545  A
C62         H884   1.081       .  S
C63          N64   1.358       .  A
C63          H65   1.074       .  S
N64          C73   1.473       .  S
N64          C66   1.363       .  A
C66          H67   1.065       .  S
H68         C878   1.081       .  S
H70         C876   1.079       .  S
C71          C72   1.537       .  S
C71          C77   1.571       .  S
C71          C75   1.531       .  S
C71         C370   1.536       .  S
C72          H79   1.089       .  S
C72          C73   1.335       .  D
C73          C74   1.563       .  S
C74          C78   1.638       .  S
C74          C76   1.632       .  S
C74          H80   1.110       .  S
C75          H81   1.085       .  S
C75          C76   1.336       .  D
C76         C190   1.588       .  S
C77          H82   1.083       .  S
C77          C78   1.378       .  D
C78          C95   1.628       .  S
C83          C84   1.544       .  S
C83          C89   1.560       .  S
C83          C87   1.568       .  S
C83         C353   1.542       .  S
C84          H91   1.087       .  S
C84          C85   1.338       .  D
C85          C86   1.520       .  S
C86          C90   1.522       .  S
C86          C88   1.561       .  S
C86          H92   1.112       .  S
C87          H93   1.076       .  S
C87          C88   1.372       .  D
C88         C212   1.536       .  S
C89          H94   1.086       .  S
C89          C90   1.361       .  D
C95          C97   1.520       .  S
C95          C99   1.527       .  S
C95          C98   1.645       .  S
C96         C184   1.625       .  S
C96         C100   1.505       .  S
C96         C102   1.514       .  S
C96         C101   1.653       .  S
C97         C105   1.377       .  A
C97         C100   1.391       .  A
C98         C109   1.444       .  A
C98         C101   1.448       .  A
C99         C113   1.383       .  A
C99         C102   1.395       .  A
C100        C103   1.372       .  A
C101        C107   1.445       .  A
C102        C110   1.374       .  A
C103        N104   1.342       .  A
C103        H116   1.075       .  S
N104        C137   1.429       .  S
N104        C105   1.344       .  A
C105        H106   1.078       .  S
C107        N108   1.397       .  A
C107        H117   1.081       .  S
N108        C109   1.395       .  A
C109        H115   1.082       .  S
C110        N111   1.344       .  A
C110        H112   1.079       .  S
N111        C125   1.434       .  S
N111        C113   1.351       .  A
C113        H114   1.080       .  S
C118        C119   1.545       .  S
C118        C124   1.551       .  S
C118        C122   1.566       .  S
C118        C342   1.534       .  S
C119        H126   1.088       .  S
C119        C120   1.330       .  D
C120        C121   1.517       .  S
C120        N205   1.421       .  S
C121        C125   1.522       .  S
C121        C123   1.558       .  S
C121        H127   1.111       .  S
C122        H128   1.070       .  S
C122        C123   1.370       .  D
C123        C143   1.532       .  S
C124        H129   1.085       .  S
C124        C125   1.356       .  D
C130        C131   1.557       .  S
C130        C136   1.551       .  S
C130        C134   1.556       .  S
C130        C325   1.534       .  S
C131        H138   1.086       .  S
C131        C132   1.348       .  D
C132        C133   1.524       .  S
C132        N228   1.440       .  S
C133        C137   1.523       .  S
C133        C135   1.555       .  S
C133        H139   1.112       .  S
C134        H140   1.076       .  S
C134        C135   1.367       .  D
C136        H141   1.077       .  S
C136        C137   1.350       .  D
C142        C144   1.515       .  S
C142        C146   1.563       .  S
C142        C145   1.664       .  S
C143        C147   1.510       .  S
C143        C149   1.529       .  S
C143        C148   1.561       .  S
C144        C152   1.365       .  A
C144        C147   1.380       .  A
C145        C156   1.453       .  A
C145        C148   1.427       .  A
C146        C160   1.397       .  A
C146        C149   1.375       .  A
C147        C150   1.370       .  A
C148        C154   1.399       .  A
C149        C157   1.382       .  A
C150        N151   1.342       .  A
C150        H163   1.078       .  S
N151        C167   1.426       .  S
N151        C152   1.345       .  A
C152        H153   1.064       .  S
C154        N155   1.366       .  A
C154        H164   1.080       .  S
N155        C156   1.401       .  A
C156        H162   1.081       .  S
C157        N158   1.356       .  A
C157        H159   1.068       .  S
N158        C179   1.483       .  S
N158        C160   1.378       .  A
C160        H161   1.075       .  S
C165        C166   1.546       .  S
C165        C171   1.557       .  S
C165        C169   1.557       .  S
C165        C311   1.534       .  S
C166        H173   1.087       .  S
C166        C167   1.343       .  D
C167        C168   1.524       .  S
C168        C172   1.520       .  S
C168        C170   1.559       .  S
C168        H174   1.111       .  S
C169        H175   1.074   1_554  S
C169        C170   1.364       .  D
C170        C189   1.523       .  S
C171        H176   1.086       .  S
C171        C172   1.357       .  D
C177        C178   1.559       .  S
C177        C183   1.540       .  S
C177        C181   1.546       .  S
C177        C297   1.522       .  S
C178        H185   1.085       .  S
C178        C179   1.346       .  D
C179        C180   1.582       .  S
C180        C184   1.648       .  S
C180        C182   1.628       .  S
C180        H186   1.109       .  S
C181        H187   1.077       .  S
C181        C182   1.348       .  D
C182        C213   1.604       .  S
C183        H188   1.086       .  S
C183        C184   1.350       .  D
C189        C191   1.528       .  S
C189        C193   1.508       .  S
C189        C192   1.559       .  S
C190        C194   1.555       .  S
C190        C196   1.506       .  S
C190        C195   1.663       .  S
C191        C199   1.377       .  A
C191        C194   1.371       .  A
C192        C195   1.428       .  A
C192        C611   1.399   1_554  A
C193        C207   1.366       .  A
C193        C196   1.368       .  A
C194        C197   1.393       .  A
C195        C609   1.452   1_554  A
C196        C204   1.360       .  A
C197        N198   1.376       .  A
C197        H210   1.076       .  S
N198        C199   1.355       .  A
C199        H200   1.067       .  S
C201        C603   1.461       .  A
C201        N202   1.406       .  A
C201        H211   1.082       .  S
N202        C203   1.367       .  A
N202        N225   1.474       .  S
C203        C600   1.406       .  A
C203        H209   1.079       .  S
C204        N205   1.344       .  A
C204        H206   1.063       .  S
N205        C207   1.347       .  A
C207        H208   1.077       .  S
C212        C214   1.539       .  S
C212        C216   1.541       .  S
C212        C215   1.553       .  S
C213        C217   1.565       .  S
C213        C219   1.499       .  S
C213        C218   1.686       .  S
C214        C222   1.386       .  A
C214        C217   1.373       .  A
C215        C226   1.403       .  A
C215        C218   1.427       .  A
C216        C230   1.383       .  A
C216        C219   1.376       .  A
C217        C220   1.406       .  A
C218        C224   1.463       .  A
C219        C227   1.364       .  A
C220        N221   1.371       .  A
C220        H233   1.068       .  S
N221        C222   1.358       .  A
C222        H223   1.077       .  S
C224        N225   1.407       .  A
C224        H234   1.081       .  S
N225        C226   1.367       .  A
C226        H232   1.081       .  S
C227        N228   1.346       .  A
C227        H229   1.065       .  S
N228        C230   1.355       .  A
C230        H231   1.078       .  S
O235       Zr247   2.374       .  S
O235       C1869   1.275       .  A
O236      Zr1905   2.483   1_455  S
O236       C1053   1.299       .  A
C237       O1867   1.279   1_455  A
C237       O1052   1.297   1_545  A
C237        C806   1.507       .  S
O238       Zr250   2.466       .  S
O238        C240   1.289       .  A
O239       Zr274   2.391       .  S
O239        C240   1.276       .  A
C240        C747   1.495       .  S
O241       Zr250   2.410       .  S
O241       C1875   1.282       .  A
O242      Zr1905   2.420   1_455  S
O242        C243   1.286       .  A
C243       O1873   1.283   1_455  A
C243        C314   1.461       .  S
O244       Zr655   2.404   1_554  S
O244        C654   1.265   1_565  A
O245      Zr1090   2.436   1_545  S
O245        C246   1.279       .  A
C246        O652   1.263       .  A
C246        C775   1.481       .  S
Zr247       O652   2.407       .  S
Zr247       O249   2.434       .  S
Zr247       O656   2.431   1_545  S
Zr247       O277   2.367       .  S
Zr247       O279   2.362       .  S
Zr247      O1069   2.376   1_545  S
Zr247      O1070   2.336   1_545  S
O248       Zr655   2.424   1_554  S
O248       H1107   0.989       .  S
O249        H290   0.990       .  S
O249        H702   0.990       .  S
Zr250       O252   2.434       .  S
Zr250       O659   2.438       .  S
Zr250       O254   2.341       .  S
Zr250       O253   2.369       .  S
Zr250       O278   2.370       .  S
Zr250       O280   2.359       .  S
O251       Zr658   2.441   1_554  S
O251        H292   0.988       .  S
O251        H295   0.989       .  S
O252        H285   0.990       .  S
O253       Zr273   2.380       .  S
O253      Zr1063   2.373       .  S
O254       Zr274   2.418       .  S
O254      Zr1063   2.348       .  S
O254        H689   0.960       .  S
O255       Zr267   2.464       .  S
O255        C257   1.290       .  A
O256      Zr1090   2.386   1_545  S
O256        C257   1.279       .  A
C257        C328   1.497       .  S
O258       Zr270   2.381       .  S
O258       C1892   1.276       .  A
O259      Zr1905   2.475   1_455  S
O259        C260   1.297       .  A
C260       O1890   1.278   1_455  A
C260        C384   1.503       .  S
O261       Zr270   2.410       .  S
O261        C263   1.260       .  A
O262       Zr274   2.415       .  S
O262        C263   1.270       .  A
C263        C300   1.466       .  S
O264       Zr267   2.407       .  S
O264       C1898   1.281       .  A
O265      Zr1905   2.414   1_455  S
O265       C1082   1.285       .  A
C266       O1896   1.285   1_455  A
C266       O1081   1.281       .  A
C266        C356   1.461       .  S
Zr267       O268   2.435       .  S
Zr267       O269   2.434       .  S
Zr267       O279   2.365       .  S
Zr267       O277   2.351       .  S
Zr267      O1091   2.336   1_545  S
Zr267      O1092   2.377   1_545  S
O268        H288   0.990       .  S
O268        H293   0.989       .  S
O269        H289   0.990       .  S
Zr270       O271   2.427       .  S
Zr270       O272   2.437       .  S
Zr270       O276   2.378       .  S
Zr270       O275   2.358       .  S
Zr270       O280   2.360       .  S
Zr270       O278   2.360       .  S
O271        H287   0.990       .  S
O272        H286   0.990       .  S
O272        H296   0.990       .  S
Zr273      O1868   2.475       .  S
Zr273      O1874   2.420       .  S
Zr273      O1891   2.463       .  S
Zr273      O1897   2.414       .  S
Zr273       O276   2.394       .  S
Zr273       O278   2.390       .  S
Zr273      O1095   2.387       .  S
Zr274      O1061   2.413       .  S
Zr274      O1072   2.400       .  S
Zr274       O275   2.451       .  S
Zr274       O280   2.407       .  S
Zr274      O1093   2.409       .  S
O275      Zr1083   2.344       .  S
O275        H283   0.967       .  S
O276      Zr1083   2.384       .  S
O277      Zr1090   2.403   1_545  S
O278        H282   0.966       .  S
O279      Zr1089   2.393   1_545  S
O279        H284   0.966       .  S
H281        O662   0.964   1_554  S
H291       O1064   0.990       .  S
H294        O657   0.990       .  S
C297        C298   1.405       .  A
C297        C302   1.407       .  A
C298        C299   1.402       .  A
C298        C303   1.449       .  S
C299        C300   1.415       .  A
C299        C306   1.447       .  S
C300        C301   1.419       .  A
C301        C302   1.396       .  A
C301        C304   1.454       .  S
C302        C305   1.452       .  S
C303        N310   1.157       .  T
C304        N309   1.157       .  T
C305        N307   1.157       .  T
C306        N308   1.157       .  T
C311        C312   1.434       .  A
C311        C724   1.428   1_554  A
C312        C313   1.393       .  A
C312        C317   1.459       .  S
C313        C722   1.397   1_554  A
C313        C320   1.457       .  S
C314        C315   1.403       .  A
C314        C721   1.401       .  A
C315        C316   1.415       .  A
C315        C318   1.452       .  S
C316        C719   1.429       .  A
C316        C319   1.447       .  S
C317        N324   1.158       .  T
C318        N323   1.157       .  T
C319        N321   1.158       .  T
C320        N322   1.157       .  T
C325        C326   1.415       .  A
C325        C330   1.415       .  A
C326        C327   1.412       .  A
C326        C331   1.449   1_545  S
C327        C328   1.428       .  A
C327       C1150   1.453   1_545  S
C328        C329   1.413       .  A
C329        C330   1.398       .  A
C329        C332   1.451       .  S
C330        C333   1.447       .  S
C331        N338   1.158       .  T
C332        N337   1.158       .  T
C333        N335   1.158       .  T
C334       C1143   1.450       .  S
C334        N336   1.157       .  T
C339        C340   1.402       .  A
C339        C344   1.422       .  A
C339        C648   1.483   1_554  S
C340        C341   1.399       .  A
C340        C345   1.454   1_554  S
C341        C342   1.433       .  A
C341        C348   1.456       .  S
C342        C343   1.412       .  A
C343        C344   1.410       .  A
C343        C346   1.448       .  S
C344        C347   1.451       .  S
C345        N760   1.158       .  T
C346        N351   1.158       .  T
C347        N349   1.157       .  T
C348        N350   1.158       .  T
N352        C753   1.157       .  T
C353        C354   1.435       .  A
C353        C358   1.423       .  A
C354        C355   1.396       .  A
C354        C359   1.457       .  S
C355        C356   1.399       .  A
C355        C362   1.457       .  S
C356        C357   1.406       .  A
C357        C358   1.415       .  A
C357        C360   1.452       .  S
C358        C361   1.446       .  S
C359        N366   1.158       .  T
C360        N365   1.157       .  T
C361        N363   1.158       .  T
C362       N1180   1.157       .  T
N364       C1178   1.157       .  T
C367        C368   1.414       .  A
C367        C780   1.406       .  A
C367        C654   1.481       .  S
C368        C369   1.405       .  A
C368        C373   1.455       .  S
C369        C370   1.425       .  A
C369        C376   1.452       .  S
C370        C371   1.447       .  A
C371        C780   1.401       .  A
C371        C782   1.458       .  S
C372        C775   1.418       .  A
C372        C779   1.403       .  A
C372        C375   1.446       .  S
C373        N380   1.157       .  T
C374        C779   1.450       .  S
C374        N379   1.157       .  T
C375        N377   1.156       .  T
C376        N378   1.158       .  T
C381        C382   1.435       .  A
C381        C386   1.421       .  A
C382        C383   1.415       .  A
C382        C387   1.452       .  S
C383        C384   1.408       .  A
C383        C390   1.451       .  S
C384        C385   1.421       .  A
C385        C386   1.415       .  A
C385        C388   1.453       .  S
C386        C389   1.453       .  S
C387        N394   1.158       .  T
C388       N2025   1.157   1_455  T
C389        N391   1.158       .  T
C390        N392   1.157       .  T
N393       C2020   1.157       .  T
C395        C396   1.414       .  A
C395        C400   1.443       .  A
C396        C397   1.412       .  A
C396        C401   1.451       .  S
C397        C398   1.420       .  A
C397       C2036   1.450       .  S
C398        C399   1.404       .  A
C398        C645   1.497       .  S
C399        C400   1.414       .  A
C399        C810   1.452   1_554  S
C400        C403   1.454       .  S
C401        N408   1.157       .  T
C402        C807   1.451       .  S
C402        N407   1.157       .  T
C403        N405   1.158       .  T
C404       C2029   1.451       .  S
C404        N406   1.157       .  T
C409        C410   1.552       .  S
C409        C415   1.574       .  S
C409        C413   1.536       .  S
C409        C803   1.552       .  S
C410        H417   1.085       .  S
C410        C411   1.354       .  D
C411        C412   1.591       .  S
C411        N606   1.489       .  S
C412        C416   1.647       .  S
C412        C414   1.631       .  S
C412        H418   1.109       .  S
C413        H419   1.086       .  S
C413        C414   1.346       .  D
C414        C456   1.611       .  S
C415        H420   1.085       .  S
C415        C416   1.376       .  D
C416        C422   1.654       .  S
C421        C451   1.643       .  S
C421        C423   1.528       .  S
C421        C425   1.524       .  S
C421        C424   1.648       .  S
C422        C426   1.530       .  S
C422        C428   1.527       .  S
C422        C427   1.656       .  S
C423        C431   1.383       .  A
C423        C426   1.397       .  A
C424       C2067   1.444   1_455  A
C424        C427   1.452       .  A
C425        C439   1.383       .  A
C425        C428   1.398       .  A
C426        C429   1.387       .  A
C427       C2065   1.448   1_455  A
C428        C436   1.381       .  A
C429        N430   1.353       .  A
C429        H442   1.079       .  S
N430        C498   1.447       .  S
N430        C431   1.348       .  A
C431        H432   1.077       .  S
C433       C2059   1.447       .  A
C433        N434   1.397       .  A
C433        H443   1.082       .  S
N434        C435   1.395       .  A
N434        N516   1.492       .  S
C435       C2056   1.444       .  A
C435        H441   1.082       .  S
C436        N437   1.350       .  A
C436        H438   1.080       .  S
N437        C580   1.443       .  S
N437        C439   1.350       .  A
C439        H440   1.078       .  S
C444        C445   1.544       .  S
C444        C450   1.574       .  S
C444        C448   1.531       .  S
C444        C789   1.548       .  S
C445        H452   1.085       .  S
C445        C446   1.359       .  D
C446        C447   1.568       .  S
C446        N629   1.475       .  S
C447        C451   1.641       .  S
C447        C449   1.630       .  S
C447        H453   1.110       .  S
C448        H454   1.087       .  S
C448        C449   1.337       .  D
C449        C550   1.599       .  S
C450        H455   1.085       .  S
C450        C451   1.378       .  D
C456        C458   1.502       .  S
C456        C460   1.561       .  S
C456        C459   1.690       .  S
C457        C543   1.533       .  S
C457        C461   1.529       .  S
C457        C463   1.537       .  S
C457        C462   1.539       .  S
C458        C466   1.361       .  A
C458        C461   1.379       .  A
C459        C470   1.464       .  A
C459        C462   1.427       .  A
C460        C474   1.405       .  A
C460        C463   1.378       .  A
C461        C464   1.374       .  A
C462        C468   1.394       .  A
C463        C471   1.380       .  A
C464        N465   1.346       .  A
C464        H477   1.078       .  S
N465        C493   1.429       .  S
N465        C466   1.346       .  A
C466        H467   1.061       .  S
C468       N1285   1.360   1_545  A
C468       H1294   1.080   1_545  S
N469       C1284   1.356       .  A
N469       C1286   1.406       .  A
N469        N563   1.465       .  S
C470       N1285   1.408   1_545  A
C470       H1292   1.081       .  S
C471        N472   1.356       .  A
C471        H473   1.076       .  S
N472        C481   1.478       .  S
N472        C474   1.368       .  A
C474        H475   1.067       .  S
H476       C1286   1.081       .  S
H478       C1284   1.077       .  S
C479        C480   1.554       .  S
C479        C485   1.545       .  S
C479        C483   1.547       .  S
C479        C778   1.529       .  S
C480        H487   1.086       .  S
C480        C481   1.354       .  D
C481        C482   1.565       .  S
C482        C486   1.642       .  S
C482        C484   1.641       .  S
C482        H488   1.110       .  S
C483        H489   1.079       .  S
C483        C484   1.344       .  D
C484        C598   1.610       .  S
C485        H490   1.085       .  S
C485        C486   1.358       .  D
C486        C503   1.623       .  S
C491        C492   1.548       .  S
C491        C497   1.560       .  S
C491        C495   1.561       .  S
C491        C761   1.539       .  S
C492        H499   1.087       .  S
C492        C493   1.342       .  D
C493        C494   1.526       .  S
C494        C498   1.520       .  S
C494        C496   1.567       .  S
C494        H500   1.111       .  S
C495        H501   1.076       .  S
C495        C496   1.367       .  D
C496        C620   1.534       .  S
C497        H502   1.086       .  S
C497        C498   1.360       .  D
C503        C505   1.520       .  S
C503        C507   1.500       .  S
C503        C506   1.645       .  S
C504        C592   1.642       .  S
C504        C508   1.526       .  S
C504        C510   1.511       .  S
C504        C509   1.655       .  S
C505        C513   1.374       .  A
C505        C508   1.401       .  A
C506        C517   1.443       .  A
C506        C509   1.449       .  A
C507        C521   1.365       .  A
C507        C510   1.391       .  A
C508        C511   1.382       .  A
C509        C515   1.447       .  A
C510        C518   1.372       .  A
C511        N512   1.349       .  A
C511        H524   1.082       .  S
N512        C545   1.431       .  S
N512        C513   1.345       .  A
C513        H514   1.076       .  S
C515        N516   1.398       .  A
C515        H525   1.082       .  S
N516        C517   1.394       .  A
C517        H523   1.082       .  S
C518        N519   1.342       .  A
C518        H520   1.080       .  S
N519        C533   1.419       .  S
N519        C521   1.338       .  A
C521        H522   1.072       .  S
C526        C527   1.566       .  S
C526        C532   1.544       .  S
C526        C530   1.549       .  S
C526        C750   1.527       .  S
C527        H534   1.084       .  S
C527        C528   1.354       .  D
C528        C529   1.525       .  S
C528        N613   1.448       .  S
C529        C533   1.522       .  S
C529        C531   1.557       .  S
C529        H535   1.112       .  S
C530        H536   1.076       .  S
C530        C531   1.361       .  D
C531        C551   1.521       .  S
C532        H537   1.078       .  S
C532        C533   1.345       .  D
C538        C539   1.542       .  S
C538        C544   1.548       .  S
C538        C542   1.569       .  S
C538        C733   1.533       .  S
C539        H546   1.088       .  S
C539        C540   1.333       .  D
C540        C541   1.519       .  S
C540        N636   1.422       .  S
C541        C545   1.520       .  S
C541        C543   1.555       .  S
C541        H547   1.111       .  S
C542        H548   1.074       .  S
C542        C543   1.373       .  D
C544        H549   1.085       .  S
C544        C545   1.358       .  D
C550        C552   1.519       .  S
C550        C554   1.566       .  S
C550        C553   1.666       .  S
C551        C555   1.501       .  S
C551        C557   1.522       .  S
C551        C556   1.557       .  S
C552        C560   1.369       .  A
C552        C555   1.378       .  A
C553        C564   1.456       .  A
C553        C556   1.425       .  A
C554        C568   1.399       .  A
C554        C557   1.372       .  A
C555        C558   1.364       .  A
C556        C562   1.397       .  A
C557        C565   1.378       .  A
C558        N559   1.338       .  A
C558        H571   1.076       .  S
N559        C575   1.423       .  S
N559        C560   1.349       .  A
C560        H561   1.066       .  S
C562        N563   1.363       .  A
C562        H572   1.079       .  S
N563        C564   1.403       .  A
C564        H570   1.081       .  S
C565        N566   1.354       .  A
C565        H567   1.068       .  S
N566        C587   1.482       .  S
N566        C568   1.379       .  A
C568        H569   1.075       .  S
C573        C574   1.546       .  S
C573        C579   1.559       .  S
C573        C577   1.560       .  S
C573        C719   1.543       .  S
C574        H581   1.087       .  S
C574        C575   1.343       .  D
C575        C576   1.519       .  S
C576        C580   1.522       .  S
C576        C578   1.558       .  S
C576        H582   1.111       .  S
C577        H583   1.071       .  S
C577        C578   1.369       .  D
C578        C597   1.531       .  S
C579        H584   1.086       .  S
C579        C580   1.360       .  D
C585        C586   1.555       .  S
C585        C591   1.555       .  S
C585        C589   1.548       .  S
C585        C705   1.535       .  S
C586        H593   1.086       .  S
C586        C587   1.346       .  D
C587        C588   1.582       .  S
C588        C592   1.650       .  S
C588        C590   1.620       .  S
C588        H594   1.109       .  S
C589        H595   1.075       .  S
C589        C590   1.348       .  D
C590        C621   1.598       .  S
C591        H596   1.085       .  S
C591        C592   1.362       .  D
C597        C599   1.531       .  S
C597        C601   1.523       .  S
C597        C600   1.568       .  S
C598        C602   1.565       .  S
C598        C604   1.525       .  S
C598        C603   1.673       .  S
C599        C607   1.386       .  A
C599        C602   1.369       .  A
C600        C603   1.429       .  A
C601        C615   1.380       .  A
C601        C604   1.377       .  A
C602        C605   1.402       .  A
C604        C612   1.378       .  A
C605        N606   1.380       .  A
C605        H618   1.076       .  S
N606        C607   1.358       .  A
C607        H608   1.068       .  S
C609        N610   1.401       .  A
C609        H619   1.081       .  S
N610        C611   1.364       .  A
N610        N633   1.465       .  S
C611        H617   1.080       .  S
C612        N613   1.354       .  A
C612        H614   1.070       .  S
N613        C615   1.352       .  A
C615        H616   1.077       .  S
C620        C622   1.538       .  S
C620        C624   1.527       .  S
C620        C623   1.542       .  S
C621        C625   1.560       .  S
C621        C627   1.489       .  S
C621        C626   1.683       .  S
C622        C630   1.379       .  A
C622        C625   1.381       .  A
C623        C634   1.396       .  A
C623        C626   1.428       .  A
C624        C638   1.369       .  A
C624        C627   1.367       .  A
C625        C628   1.403       .  A
C626        C632   1.457       .  A
C627        C635   1.355       .  A
C628        N629   1.367       .  A
C628        H641   1.069       .  S
N629        C630   1.355       .  A
C630        H631   1.077       .  S
C632        N633   1.403       .  A
C632        H642   1.081       .  S
N633        C634   1.362       .  A
C634        H640   1.081       .  S
C635        N636   1.343       .  A
C635        H637   1.062       .  S
N636        C638   1.351       .  A
C638        H639   1.078       .  S
O643       Zr655   2.389   1_544  S
O643       C2277   1.277       .  A
O644      Zr2313   2.501   1_455  S
O644       C1461   1.302   1_556  A
C645       O2275   1.276   1_455  A
C645       O1460   1.297   1_544  A
O646       Zr658   2.453       .  S
O646        C648   1.284       .  A
O647       Zr682   2.383       .  S
O647        C648   1.270       .  A
O649       Zr658   2.416       .  S
O649       C2283   1.283       .  A
O650      Zr2313   2.394   1_455  S
O650        C651   1.280       .  A
C651       O2281   1.285   1_455  A
C651        C722   1.453       .  S
O653      Zr1498   2.417   1_545  S
O653        C654   1.279   1_556  A
Zr655       O657   2.437   1_566  S
Zr655      O1477   2.372       .  S
Zr655      O1478   2.345       .  S
Zr655       O685   2.363   1_565  S
Zr655       O687   2.362   1_565  S
O656       H1515   0.990       .  S
O657        H698   0.990   1_554  S
Zr658       O660   2.431       .  S
Zr658       O662   2.356       .  S
Zr658       O661   2.365       .  S
Zr658       O686   2.376       .  S
Zr658       O688   2.360       .  S
O659        H700   0.988       .  S
O659        H703   0.989       .  S
O660        H693   0.990       .  S
O661      Zr1471   2.374       .  S
O661       Zr681   2.380       .  S
O662      Zr1471   2.367       .  S
O662       Zr682   2.453       .  S
O663       Zr675   2.466       .  S
O663        C665   1.287       .  A
O664      Zr1498   2.383       .  S
O664        C665   1.269   1_565  A
C665        C736   1.488       .  S
O666       Zr678   2.395       .  S
O666       C2300   1.279       .  A
O667      Zr2313   2.480   1_455  S
O667        C668   1.298       .  A
C668       O2298   1.274   1_455  A
C668        C792   1.500       .  S
O669       Zr678   2.422       .  S
O669        C671   1.263       .  A
O670       Zr682   2.441       .  S
O670        C671   1.274       .  A
C671        C708   1.481       .  S
O672       Zr675   2.424       .  S
O672       C2306   1.285       .  A
O673      Zr2313   2.403   1_455  S
O673       C1490   1.282       .  A
C674       O2304   1.282   1_455  A
C674       O1489   1.283       .  A
C674        C764   1.453       .  S
Zr675       O676   2.436       .  S
Zr675       O677   2.434       .  S
Zr675      O1499   2.346   1_545  S
Zr675      O1500   2.375   1_545  S
Zr675       O687   2.380       .  S
Zr675       O685   2.362       .  S
O676        H696   0.990       .  S
O676        H701   0.990       .  S
O677        H697   0.990       .  S
Zr678       O679   2.426       .  S
Zr678       O680   2.435       .  S
Zr678       O684   2.376       .  S
Zr678       O683   2.358       .  S
Zr678       O688   2.354       .  S
Zr678       O686   2.366       .  S
O679        H695   0.990       .  S
O680        H694   0.990       .  S
O680        H704   0.989       .  S
Zr681      O2276   2.472       .  S
Zr681      O2282   2.404       .  S
Zr681      O2299   2.459       .  S
Zr681      O2305   2.401       .  S
Zr681       O684   2.385       .  S
Zr681       O686   2.397       .  S
Zr681      O1503   2.391       .  S
Zr682      O1469   2.435       .  S
Zr682      O1480   2.389       .  S
Zr682       O683   2.436       .  S
Zr682      O1501   2.402       .  S
Zr682       O688   2.426       .  S
O683      Zr1491   2.338       .  S
O683        H691   0.966       .  S
O684      Zr1491   2.369       .  S
O685      Zr1498   2.418   1_545  S
O686        H690   0.966       .  S
O687      Zr1497   2.395   1_545  S
O687        H692   0.966       .  S
H699       O1472   0.990       .  S
C705        C706   1.411       .  A
C705        C710   1.408       .  A
C706        C707   1.407       .  A
C706        C711   1.449       .  S
C707        C708   1.414       .  A
C707        C714   1.447       .  S
C708        C709   1.417       .  A
C709        C710   1.400       .  A
C709        C712   1.453       .  S
C710        C713   1.449       .  S
C711        N718   1.157       .  T
C712        N717   1.157       .  T
C713        N715   1.157       .  T
C714        N716   1.157       .  T
C719        C720   1.435       .  A
C720        C721   1.397       .  A
C720        C725   1.459       .  S
C721        C728   1.458       .  S
C722        C723   1.403       .  A
C723        C724   1.412       .  A
C723        C726   1.453       .  S
C724        C727   1.448       .  S
C725        N732   1.158       .  T
C726        N731   1.157       .  T
C727        N729   1.158       .  T
C728        N730   1.157       .  T
C733        C734   1.405       .  A
C733        C738   1.430       .  A
C734        C735   1.408       .  A
C734        C739   1.449   1_545  S
C735        C736   1.426       .  A
C735       C1558   1.450   1_545  S
C736        C737   1.404       .  A
C737        C738   1.401       .  A
C737        C740   1.454       .  S
C738        C741   1.455       .  S
C739        N746   1.158       .  T
C740        N745   1.157       .  T
C741        N743   1.158       .  T
C742       C1551   1.452       .  S
C742        N744   1.157       .  T
C747        C748   1.416       .  A
C747        C752   1.434       .  A
C748        C749   1.397       .  A
C748        C753   1.449       .  S
C749        C750   1.407       .  A
C749        C756   1.447       .  S
C750        C751   1.406       .  A
C751        C752   1.410       .  A
C751        C754   1.449       .  S
C752        C755   1.451       .  S
C754        N759   1.158       .  T
C755        N757   1.157       .  T
C756        N758   1.158       .  T
C761        C762   1.433       .  A
C761        C766   1.427       .  A
C762        C763   1.394       .  A
C762        C767   1.458       .  S
C763        C764   1.398       .  A
C763        C770   1.457       .  S
C764        C765   1.405       .  A
C765        C766   1.414       .  A
C765        C768   1.453       .  S
C766        C769   1.447       .  S
C767        N774   1.158       .  T
C768        N773   1.157       .  T
C769        N771   1.158       .  T
C770       N1588   1.157       .  T
N772       C1586   1.157       .  T
C775        C776   1.423       .  A
C776        C777   1.401       .  A
C776        C781   1.451       .  S
C777        C778   1.406       .  A
C777        C784   1.451       .  S
C778        C779   1.405       .  A
C780        C783   1.456   1_554  S
C781        N788   1.157       .  T
C782        N787   1.158       .  T
C783        N785   1.158       .  T
C784        N786   1.157       .  T
C789        C790   1.439       .  A
C789        C794   1.418       .  A
C790        C791   1.414       .  A
C790        C795   1.453       .  S
C791        C792   1.405       .  A
C791        C798   1.451       .  S
C792        C793   1.422       .  A
C793        C794   1.412       .  A
C793        C796   1.453   1_455  S
C794        C797   1.452       .  S
C795        N802   1.158       .  T
C796       N2433   1.157       .  T
C797        N799   1.158       .  T
C798        N800   1.157       .  T
N801       C2428   1.157       .  T
C803        C804   1.417       .  A
C803        C808   1.432       .  A
C804        C805   1.416       .  A
C804        C809   1.452       .  S
C805        C806   1.424       .  A
C805       C2444   1.452   1_455  S
C806        C807   1.410       .  A
C807        C808   1.413       .  A
C808        C811   1.453       .  S
C809        N816   1.158       .  T
C810        N815   1.158       .  T
C811        N813   1.158       .  T
C812       C2437   1.451       .  S
C812        N814   1.157   1_545  T
C817        C818   1.546       .  S
C817        C823   1.575       .  S
C817        C821   1.539       .  S
C817       C1211   1.551       .  S
C818        H825   1.086       .  S
C818        C819   1.349       .  D
C819        C820   1.588       .  S
C819       N1014   1.482       .  S
C820        C824   1.649       .  S
C820        C822   1.628       .  S
C820        H826   1.109       .  S
C821        H827   1.086       .  S
C821        C822   1.349       .  D
C822        C864   1.613       .  S
C823        H828   1.084       .  S
C823        C824   1.376       .  D
C824        C830   1.657       .  S
C829        C859   1.646       .  S
C829        C831   1.528       .  S
C829        C833   1.521       .  S
C829        C832   1.648       .  S
C830        C834   1.528       .  S
C830        C836   1.520       .  S
C830        C835   1.656       .  S
C831        C839   1.381       .  A
C831        C834   1.401       .  A
C832       C2475   1.443   1_455  A
C832        C835   1.453       .  A
C833        C847   1.379       .  A
C833        C836   1.398       .  A
C834        C837   1.384       .  A
C835       C2473   1.446   1_455  A
C836        C844   1.376       .  A
C837        N838   1.351       .  A
C837        H850   1.080       .  S
N838        C906   1.441       .  S
N838        C839   1.347       .  A
C839        H840   1.078       .  S
C841       C2467   1.449       .  A
C841        N842   1.399       .  A
C841        H851   1.082       .  S
N842        C843   1.394       .  A
N842        N924   1.493       .  S
C843       C2464   1.444       .  A
C843        H849   1.082       .  S
C844        N845   1.345       .  A
C844        H846   1.080       .  S
N845        C988   1.436       .  S
N845        C847   1.348       .  A
C847        H848   1.076       .  S
C852        C853   1.543       .  S
C852        C858   1.576       .  S
C852        C856   1.535       .  S
C852       C1197   1.557       .  S
C853        H860   1.085       .  S
C853        C854   1.358       .  D
C854        C855   1.568       .  S
C854       N1037   1.476       .  S
C855        C859   1.640       .  S
C855        C857   1.631       .  S
C855        H861   1.110       .  S
C856        H862   1.087       .  S
C856        C857   1.341       .  D
C857        C958   1.605       .  S
C858        H863   1.085       .  S
C858        C859   1.381       .  D
C864        C866   1.500       .  S
C864        C868   1.561       .  S
C864        C867   1.689       .  S
C865        C951   1.536       .  S
C865        C869   1.530       .  S
C865        C871   1.539       .  S
C865        C870   1.530       .  S
C866        C874   1.359       .  A
C866        C869   1.379       .  A
C867        C878   1.462       .  A
C867        C870   1.427       .  A
C868        C882   1.404       .  A
C868        C871   1.381       .  A
C869        C872   1.375       .  A
C870        C876   1.388       .  A
C871        C879   1.378       .  A
C872        N873   1.349       .  A
C872        H885   1.078       .  S
N873        C901   1.430       .  S
N873        C874   1.345       .  A
C874        H875   1.062       .  S
N877        N971   1.464       .  S
C879        N880   1.355       .  A
C879        H881   1.076       .  S
N880        C889   1.476       .  S
N880        C882   1.367       .  A
C882        H883   1.069       .  S
C887        C888   1.558       .  S
C887        C893   1.537       .  S
C887        C891   1.544       .  S
C887       C1186   1.518       .  S
C888        H895   1.086       .  S
C888        C889   1.357       .  D
C889        C890   1.560       .  S
C890        C894   1.646       .  S
C890        C892   1.643       .  S
C890        H896   1.110       .  S
C891        H897   1.081       .  S
C891        C892   1.342       .  D
C892       C1006   1.610       .  S
C893        H898   1.086       .  S
C893        C894   1.350       .  D
C894        C911   1.618       .  S
C899        C900   1.549       .  S
C899        C905   1.554       .  S
C899        C903   1.564       .  S
C899       C1169   1.540       .  S
C900        H907   1.086       .  S
C900        C901   1.346       .  D
C901        C902   1.527       .  S
C902        C906   1.521       .  S
C902        C904   1.563       .  S
C902        H908   1.111       .  S
C903        H909   1.076       .  S
C903        C904   1.368       .  D
C904       C1028   1.537       .  S
C905        H910   1.086       .  S
C905        C906   1.356       .  D
C911        C913   1.526       .  S
C911        C915   1.500       .  S
C911        C914   1.646       .  S
C912       C1000   1.630       .  S
C912        C916   1.522       .  S
C912        C918   1.511       .  S
C912        C917   1.658       .  S
C913        C921   1.380       .  A
C913        C916   1.397       .  A
C914        C925   1.444       .  A
C914        C917   1.447       .  A
C915        C929   1.370       .  A
C915        C918   1.385       .  A
C916        C919   1.384       .  A
C917        C923   1.450       .  A
C918        C926   1.373       .  A
C919        N920   1.349       .  A
C919        H932   1.082       .  S
N920        C953   1.437       .  S
N920        C921   1.350       .  A
C921        H922   1.076       .  S
C923        N924   1.399       .  A
C923        H933   1.082       .  S
N924        C925   1.394       .  A
C925        H931   1.081       .  S
C926        N927   1.342       .  A
C926        H928   1.078       .  S
N927        C941   1.424       .  S
N927        C929   1.340       .  A
C929        H930   1.076       .  S
C934        C935   1.556       .  S
C934        C940   1.542       .  S
C934        C938   1.562       .  S
C934       C1158   1.531       .  S
C935        H942   1.085       .  S
C935        C936   1.342       .  D
C936        C937   1.518       .  S
C936       N1021   1.434       .  S
C937        C941   1.525       .  S
C937        C939   1.556       .  S
C937        H943   1.112       .  S
C938        H944   1.075       .  S
C938        C939   1.371       .  D
C939        C959   1.529       .  S
C940        H945   1.081       .  S
C940        C941   1.346       .  D
C946        C947   1.538       .  S
C946        C952   1.556       .  S
C946        C950   1.573       .  S
C946       C1141   1.545       .  S
C947        H954   1.088       .  S
C947        C948   1.332       .  D
C948        C949   1.517       .  S
C948       N1044   1.418       .  S
C949        C953   1.519       .  S
C949        C951   1.549       .  S
C949        H955   1.111       .  S
C950        H956   1.072       .  S
C950        C951   1.377       .  D
C952        H957   1.085       .  S
C952        C953   1.363       .  D
C958        C960   1.522       .  S
C958        C962   1.564       .  S
C958        C961   1.664       .  S
C959        C963   1.509       .  S
C959        C965   1.524       .  S
C959        C964   1.557       .  S
C960        C968   1.371       .  A
C960        C963   1.383       .  A
C961        C972   1.454       .  A
C961        C964   1.427       .  A
C962        C976   1.399       .  A
C962        C965   1.371       .  A
C963        C966   1.368       .  A
C964        C970   1.397       .  A
C965        C973   1.378       .  A
C966        N967   1.341       .  A
C966        H979   1.077       .  S
N967        C983   1.430       .  S
N967        C968   1.350       .  A
C968        H969   1.067       .  S
C970        N971   1.364       .  A
C970        H980   1.079       .  S
N971        C972   1.402       .  A
C972        H978   1.081       .  S
C973        N974   1.354       .  A
C973        H975   1.067       .  S
N974        C995   1.481       .  S
N974        C976   1.379       .  A
C976        H977   1.075       .  S
C981        C982   1.551       .  S
C981        C987   1.550       .  S
C981        C985   1.563       .  S
C981       C1127   1.537       .  S
C982        H989   1.087       .  S
C982        C983   1.346       .  D
C983        C984   1.521       .  S
C984        C988   1.523       .  S
C984        C986   1.560       .  S
C984        H990   1.111       .  S
C985        H991   1.074   1_554  S
C985        C986   1.369       .  D
C986       C1005   1.534       .  S
C987        H992   1.086       .  S
C987        C988   1.353       .  D
C993        C994   1.552       .  S
C993        C999   1.545       .  S
C993        C997   1.553       .  S
C993       C1113   1.526       .  S
C994       H1001   1.087       .  S
C994        C995   1.342       .  D
C995        C996   1.583       .  S
C996       C1000   1.651       .  S
C996        C998   1.619       .  S
C996       H1002   1.109       .  S
C997       H1003   1.077       .  S
C997        C998   1.354       .  D
C998       C1029   1.599       .  S
C999       H1004   1.086       .  S
C999       C1000   1.353       .  D
C1005      C1007   1.532       .  S
C1005      C1009   1.516       .  S
C1005      C1008   1.569       .  S
C1006      C1010   1.559       .  S
C1006      C1012   1.515       .  S
C1006      C1011   1.671       .  S
C1007      C1015   1.382       .  A
C1007      C1010   1.372       .  A
C1008      C1427   1.406   1_554  A
C1008      C1011   1.431       .  A
C1009      C1023   1.374       .  A
C1009      C1012   1.374       .  A
C1010      C1013   1.397       .  A
C1011      C1425   1.458   1_554  A
C1012      C1020   1.368       .  A
C1013      N1014   1.377       .  A
C1013      H1026   1.076       .  S
N1014      C1015   1.357       .  A
C1015      H1016   1.068       .  S
C1017      C1419   1.456       .  A
C1017      N1018   1.403       .  A
C1017      H1027   1.081       .  S
N1018      C1019   1.362       .  A
N1018      N1041   1.465       .  S
C1019      C1416   1.398       .  A
C1019      H1025   1.079       .  S
C1020      N1021   1.348       .  A
C1020      H1022   1.067       .  S
N1021      C1023   1.351       .  A
C1023      H1024   1.077       .  S
C1028      C1030   1.540       .  S
C1028      C1032   1.525       .  S
C1028      C1031   1.545       .  S
C1029      C1033   1.561       .  S
C1029      C1035   1.488       .  S
C1029      C1034   1.678       .  S
C1030      C1038   1.379       .  A
C1030      C1033   1.384       .  A
C1031      C1042   1.397       .  A
C1031      C1034   1.427       .  A
C1032      C1046   1.367       .  A
C1032      C1035   1.370       .  A
C1033      C1036   1.404       .  A
C1034      C1040   1.455       .  A
C1035      C1043   1.353       .  A
C1036      N1037   1.367       .  A
C1036      H1049   1.070       .  S
N1037      C1038   1.355       .  A
C1038      H1039   1.077       .  S
C1040      N1041   1.403       .  A
C1040      H1050   1.081       .  S
N1041      C1042   1.364       .  A
C1042      H1048   1.081       .  S
C1043      N1044   1.341       .  A
C1043      H1045   1.063       .  S
N1044      C1046   1.349       .  A
C1046      H1047   1.078       .  S
O1051     Zr1063   2.380       .  S
O1051      C2685   1.277       .  A
O1052     Zr2721   2.475   1_455  S
C1053      O2683   1.274   1_455  A
C1053      C1622   1.498       .  S
O1054     Zr1066   2.468       .  S
O1054      C1056   1.288       .  A
O1055     Zr1090   2.386       .  S
O1055      C1056   1.272       .  A
C1056      C1563   1.488       .  S
O1057     Zr1066   2.418       .  S
O1057      C2691   1.283       .  A
O1058     Zr2721   2.402   1_455  S
O1058      C1059   1.282       .  A
C1059      O2689   1.283   1_455  A
C1059      C1130   1.449       .  S
O1060     Zr1471   2.401   1_554  S
O1060      C1470   1.261   1_554  A
O1061      C1062   1.280       .  A
C1062      O1468   1.266       .  A
C1062      C1591   1.479       .  S
Zr1063     O1468   2.403       .  S
Zr1063     O1472   2.422       .  S
Zr1063     O1065   2.436       .  S
Zr1063     O1093   2.355       .  S
Zr1063     O1095   2.349       .  S
O1064     Zr1471   2.423   1_554  S
O1065      H1106   0.990       .  S
O1065      H1518   0.990       .  S
Zr1066     O1475   2.434       .  S
Zr1066     O1068   2.434       .  S
Zr1066     O1070   2.352       .  S
Zr1066     O1069   2.376       .  S
Zr1066     O1094   2.370       .  S
Zr1066     O1096   2.354       .  S
O1067     Zr1474   2.433   1_554  S
O1067      H1108   0.987       .  S
O1067      H1111   0.989       .  S
O1068      H1101   0.990       .  S
O1069     Zr1089   2.389       .  S
O1070     Zr1090   2.444       .  S
O1070      H1505   0.962       .  S
O1071     Zr1083   2.451       .  S
O1071      C1073   1.283       .  A
O1072      C1073   1.275       .  A
C1073      C1144   1.497       .  S
O1074     Zr1086   2.382       .  S
O1074      C2708   1.276       .  A
O1075     Zr2721   2.467   1_455  S
O1075      C1076   1.293       .  A
C1076      O2706   1.276   1_455  A
C1076      C1200   1.512       .  S
O1077     Zr1086   2.418       .  S
O1077      C1079   1.265       .  A
O1078     Zr1090   2.435       .  S
O1078      C1079   1.278       .  A
C1079      C1116   1.481       .  S
O1080     Zr1083   2.410       .  S
O1080      C2714   1.282       .  A
O1081     Zr2721   2.400   1_445  S
C1082      O2712   1.285   1_455  A
C1082      C1172   1.460       .  S
Zr1083     O1084   2.434       .  S
Zr1083     O1085   2.432       .  S
Zr1083     O1095   2.365       .  S
Zr1083     O1093   2.361       .  S
O1084      H1104   0.990       .  S
O1084      H1109   0.990       .  S
O1085      H1105   0.990       .  S
Zr1086     O1087   2.426       .  S
Zr1086     O1088   2.436       .  S
Zr1086     O1092   2.375       .  S
Zr1086     O1091   2.345       .  S
Zr1086     O1096   2.356       .  S
Zr1086     O1094   2.360       .  S
O1087      H1103   0.990       .  S
O1088      H1102   0.990       .  S
O1088      H1112   0.990       .  S
Zr1089     O2684   2.473       .  S
Zr1089     O2690   2.401       .  S
Zr1089     O2707   2.476       .  S
Zr1089     O2713   2.397   1_565  S
Zr1089     O1092   2.385       .  S
Zr1089     O1094   2.389       .  S
Zr1090     O1091   2.428       .  S
Zr1090     O1096   2.418       .  S
O1091      H1099   0.963       .  S
O1094      H1098   0.966       .  S
O1095      H1100   0.966       .  S
H1097      O1478   0.960   1_554  S
H1110      O1473   0.990   1_554  S
C1113      C1114   1.401       .  A
C1113      C1118   1.414       .  A
C1114      C1115   1.401       .  A
C1114      C1119   1.449       .  S
C1115      C1116   1.418       .  A
C1115      C1122   1.446       .  S
C1116      C1117   1.421       .  A
C1117      C1118   1.401       .  A
C1117      C1120   1.454       .  S
C1118      C1121   1.453       .  S
C1119      N1126   1.157       .  T
C1120      N1125   1.158       .  T
C1121      N1123   1.157       .  T
C1122      N1124   1.157       .  T
C1127      C1128   1.433       .  A
C1127      C1540   1.427   1_554  A
C1128      C1129   1.391       .  A
C1128      C1133   1.458       .  S
C1129      C1538   1.397   1_554  A
C1129      C1136   1.458       .  S
C1130      C1537   1.397       .  A
C1130      C1131   1.404       .  A
C1131      C1132   1.413       .  A
C1131      C1134   1.453       .  S
C1132      C1535   1.428       .  A
C1132      C1135   1.448       .  S
C1133      N1140   1.158       .  T
C1134      N1139   1.158       .  T
C1135      N1137   1.158       .  T
C1136      N1138   1.157       .  T
C1141      C1142   1.410       .  A
C1141      C1146   1.432       .  A
C1142      C1143   1.414       .  A
C1142      C1147   1.448       .  S
C1143      C1144   1.426       .  A
C1144      C1145   1.409       .  A
C1145      C1146   1.404       .  A
C1145      C1148   1.455       .  S
C1146      C1149   1.455       .  S
C1147      N1154   1.158       .  T
C1148      N1153   1.158       .  T
C1149      N1151   1.158       .  T
C1150      N1152   1.158       .  T
C1155      C1156   1.408       .  A
C1155      C1160   1.428       .  A
C1155      C1464   1.493   1_554  S
C1156      C1157   1.402       .  A
C1156      C1161   1.453       .  S
C1157      C1158   1.425       .  A
C1157      C1164   1.450       .  S
C1158      C1159   1.407       .  A
C1159      C1160   1.409       .  A
C1159      C1162   1.449       .  S
C1160      C1163   1.452       .  S
C1161      N1576   1.157       .  T
C1162      N1167   1.158       .  T
C1163      N1165   1.158       .  T
C1164      N1166   1.158       .  T
N1168      C1569   1.157       .  T
C1169      C1170   1.433       .  A
C1169      C1174   1.426       .  A
C1170      C1171   1.396       .  A
C1170      C1175   1.458       .  S
C1171      C1172   1.399       .  A
C1171      C1178   1.457       .  S
C1172      C1173   1.405       .  A
C1173      C1174   1.415       .  A
C1173      C1176   1.452       .  S
C1174      C1177   1.448       .  S
C1175      N1182   1.158       .  T
C1176      N1181   1.157       .  T
C1177      N1179   1.158       .  T
C1183      C1184   1.422       .  A
C1183      C1596   1.418   1_554  A
C1183      C1470   1.471   1_554  S
C1184      C1185   1.393       .  A
C1184      C1189   1.450       .  S
C1185      C1186   1.400       .  A
C1185      C1192   1.451       .  S
C1186      C1187   1.404       .  A
C1187      C1596   1.403   1_554  A
C1187      C1598   1.451       .  S
C1188      C1591   1.402       .  A
C1188      C1595   1.405       .  A
C1188      C1191   1.459       .  S
C1189      N1196   1.156       .  T
C1190      C1595   1.456       .  S
C1190      N1195   1.158       .  T
C1191      N1193   1.158       .  T
C1192      N1194   1.157       .  T
C1197      C1198   1.440       .  A
C1197      C1202   1.419       .  A
C1198      C1199   1.416       .  A
C1198      C1203   1.454       .  S
C1199      C1200   1.409       .  A
C1199      C1206   1.454       .  S
C1200      C1201   1.423       .  A
C1201      C1202   1.417       .  A
C1201      C1204   1.451   1_455  S
C1202      C1205   1.452       .  S
C1203      N1210   1.158       .  T
C1204      N2841   1.157       .  T
C1205      N1207   1.158       .  T
C1206      N1208   1.158       .  T
N1209      C2836   1.157       .  T
C1211      C1212   1.414       .  A
C1211      C1216   1.432       .  A
C1212      C1213   1.417       .  A
C1212      C1217   1.452       .  S
C1213      C1214   1.429       .  A
C1213      C2852   1.451   1_455  S
C1214      C1215   1.406       .  A
C1214      C1461   1.505       .  S
C1215      C1216   1.409       .  A
C1215      C1626   1.450   1_554  S
C1216      C1219   1.451       .  S
C1217      N1224   1.158       .  T
C1218      C1623   1.452       .  S
C1218      N1223   1.158       .  T
C1219      N1221   1.157       .  T
C1220      C2845   1.451       .  S
C1220      N1222   1.157       .  T
C1225      C1226   1.539       .  S
C1225      C1231   1.580       .  S
C1225      C1229   1.537       .  S
C1225      C1619   1.549       .  S
C1226      H1233   1.085       .  S
C1226      C1227   1.345       .  D
C1227      C1228   1.588       .  S
C1227      N1422   1.478       .  S
C1228      C1232   1.641       .  S
C1228      C1230   1.622       .  S
C1228      H1234   1.109       .  S
C1229      H1235   1.086       .  S
C1229      C1230   1.344       .  D
C1230      C1272   1.601       .  S
C1231      H1236   1.084       .  S
C1231      C1232   1.381       .  D
C1232      C1238   1.654       .  S
C1237      C1267   1.648       .  S
C1237      C1239   1.521       .  S
C1237      C1241   1.520       .  S
C1237      C1240   1.654       .  S
C1238      C1242   1.529       .  S
C1238      C1244   1.522       .  S
C1238      C1243   1.654       .  S
C1239      C1247   1.377       .  A
C1239      C1242   1.399       .  A
C1240      C2883   1.447   1_455  A
C1240      C1243   1.453       .  A
C1241      C1255   1.378       .  A
C1241      C1244   1.400       .  A
C1242      C1245   1.381       .  A
C1243      C2881   1.447   1_455  A
C1244      C1252   1.376       .  A
C1245      N1246   1.351       .  A
C1245      H1258   1.076       .  S
N1246      C1314   1.438       .  S
N1246      C1247   1.343       .  A
C1247      H1248   1.077       .  S
C1249      C2875   1.444       .  A
C1249      N1250   1.395       .  A
C1249      H1259   1.082       .  S
N1250      C1251   1.395       .  A
N1250      N1332   1.489       .  S
C1251      C2872   1.443       .  A
C1251      H1257   1.082       .  S
C1252      N1253   1.346       .  A
C1252      H1254   1.080       .  S
N1253      C1396   1.434       .  S
N1253      C1255   1.347       .  A
C1255      H1256   1.077       .  S
C1260      C1261   1.548       .  S
C1260      C1266   1.572       .  S
C1260      C1264   1.534       .  S
C1260      C1605   1.554       .  S
C1261      H1268   1.084       .  S
C1261      C1262   1.360       .  D
C1262      C1263   1.572       .  S
C1262      N1445   1.482       .  S
C1263      C1267   1.646       .  S
C1263      C1265   1.634       .  S
C1263      H1269   1.110       .  S
C1264      H1270   1.087       .  S
C1264      C1265   1.341       .  D
C1265      C1366   1.606       .  S
C1266      H1271   1.085       .  S
C1266      C1267   1.375       .  D
C1272      C1274   1.502       .  S
C1272      C1276   1.559       .  S
C1272      C1275   1.682       .  S
C1273      C1359   1.523       .  S
C1273      C1277   1.522       .  S
C1273      C1279   1.528       .  S
C1273      C1278   1.536       .  S
C1274      C1282   1.360       .  A
C1274      C1277   1.382       .  A
C1275      C1286   1.462       .  A
C1275      C1278   1.423       .  A
C1276      C1290   1.404       .  A
C1276      C1279   1.376       .  A
C1277      C1280   1.368       .  A
C1278      C1284   1.392       .  A
C1279      C1287   1.372       .  A
C1280      N1281   1.343       .  A
C1280      H1293   1.077       .  S
N1281      C1309   1.423       .  S
N1281      C1282   1.346       .  A
C1282      H1283   1.065       .  S
N1285      N1379   1.469       .  S
C1287      N1288   1.356       .  A
C1287      H1289   1.074       .  S
N1288      C1297   1.471       .  S
N1288      C1290   1.365       .  A
C1290      H1291   1.066       .  S
C1295      C1296   1.543       .  S
C1295      C1301   1.571       .  S
C1295      C1299   1.532       .  S
C1295      C1594   1.541       .  S
C1296      H1303   1.089       .  S
C1296      C1297   1.339       .  D
C1297      C1298   1.554       .  S
C1298      C1302   1.644       .  S
C1298      C1300   1.636       .  S
C1298      H1304   1.109       .  S
C1299      H1305   1.084       .  S
C1299      C1300   1.335       .  D
C1300      C1414   1.598       .  S
C1301      H1306   1.082       .  S
C1301      C1302   1.377       .  D
C1302      C1319   1.635       .  S
C1307      C1308   1.547       .  S
C1307      C1313   1.552       .  S
C1307      C1311   1.563       .  S
C1307      C1577   1.530       .  S
C1308      H1315   1.087       .  S
C1308      C1309   1.340       .  D
C1309      C1310   1.520       .  S
C1310      C1314   1.522       .  S
C1310      C1312   1.561       .  S
C1310      H1316   1.112       .  S
C1311      H1317   1.075       .  S
C1311      C1312   1.367       .  D
C1312      C1436   1.529       .  S
C1313      H1318   1.086       .  S
C1313      C1314   1.353       .  D
C1319      C1321   1.522       .  S
C1319      C1323   1.525       .  S
C1319      C1322   1.647       .  S
C1320      C1408   1.626       .  S
C1320      C1324   1.504       .  S
C1320      C1326   1.508       .  S
C1320      C1325   1.651       .  S
C1321      C1329   1.378       .  A
C1321      C1324   1.393       .  A
C1322      C1333   1.443       .  A
C1322      C1325   1.449       .  A
C1323      C1337   1.381       .  A
C1323      C1326   1.398       .  A
C1324      C1327   1.370       .  A
C1325      C1331   1.443       .  A
C1326      C1334   1.371       .  A
C1327      N1328   1.342       .  A
C1327      H1340   1.075       .  S
N1328      C1361   1.430       .  S
N1328      C1329   1.346       .  A
C1329      H1330   1.079       .  S
C1331      N1332   1.395       .  A
C1331      H1341   1.081       .  S
N1332      C1333   1.395       .  A
C1333      H1339   1.082       .  S
C1334      N1335   1.341       .  A
C1334      H1336   1.080       .  S
N1335      C1349   1.427       .  S
N1335      C1337   1.349       .  A
C1337      H1338   1.081       .  S
C1342      C1343   1.543       .  S
C1342      C1348   1.543       .  S
C1342      C1346   1.567       .  S
C1342      C1566   1.528       .  S
C1343      H1350   1.088       .  S
C1343      C1344   1.332       .  D
C1344      C1345   1.515       .  S
C1344      N1429   1.419       .  S
C1345      C1349   1.525       .  S
C1345      C1347   1.554       .  S
C1345      H1351   1.111       .  S
C1346      H1352   1.071       .  S
C1346      C1347   1.371       .  D
C1347      C1367   1.532       .  S
C1348      H1353   1.085       .  S
C1348      C1349   1.352       .  D
C1354      C1355   1.557       .  S
C1354      C1360   1.555       .  S
C1354      C1358   1.546       .  S
C1354      C1549   1.527       .  S
C1355      H1362   1.085       .  S
C1355      C1356   1.348       .  D
C1356      C1357   1.526       .  S
C1356      N1452   1.438       .  S
C1357      C1361   1.525       .  S
C1357      C1359   1.554       .  S
C1357      H1363   1.112       .  S
C1358      H1364   1.077       .  S
C1358      C1359   1.362       .  D
C1360      H1365   1.078       .  S
C1360      C1361   1.353       .  D
C1366      C1368   1.519       .  S
C1366      C1370   1.566       .  S
C1366      C1369   1.671       .  S
C1367      C1371   1.513       .  S
C1367      C1373   1.530       .  S
C1367      C1372   1.561       .  S
C1368      C1376   1.371       .  A
C1368      C1371   1.378       .  A
C1369      C1380   1.458       .  A
C1369      C1372   1.428       .  A
C1370      C1384   1.401       .  A
C1370      C1373   1.374       .  A
C1371      C1374   1.372       .  A
C1372      C1378   1.401       .  A
C1373      C1381   1.383       .  A
C1374      N1375   1.345       .  A
C1374      H1387   1.078       .  S
N1375      C1391   1.435       .  S
N1375      C1376   1.349       .  A
C1376      H1377   1.066       .  S
C1378      N1379   1.365       .  A
C1378      H1388   1.079       .  S
N1379      C1380   1.404       .  A
C1380      H1386   1.081       .  S
C1381      N1382   1.355       .  A
C1381      H1383   1.068       .  S
N1382      C1403   1.484       .  S
N1382      C1384   1.380       .  A
C1384      H1385   1.076       .  S
C1389      C1390   1.553       .  S
C1389      C1395   1.550       .  S
C1389      C1393   1.557       .  S
C1389      C1535   1.533       .  S
C1390      H1397   1.086       .  S
C1390      C1391   1.348       .  D
C1391      C1392   1.526       .  S
C1392      C1396   1.522       .  S
C1392      C1394   1.560       .  S
C1392      H1398   1.111       .  S
C1393      H1399   1.073       .  S
C1393      C1394   1.365       .  D
C1394      C1413   1.527       .  S
C1395      H1400   1.086       .  S
C1395      C1396   1.352       .  D
C1401      C1402   1.560       .  S
C1401      C1407   1.542       .  S
C1401      C1405   1.547       .  S
C1401      C1521   1.524       .  S
C1402      H1409   1.085       .  S
C1402      C1403   1.347       .  D
C1403      C1404   1.582       .  S
C1404      C1408   1.647       .  S
C1404      C1406   1.627       .  S
C1404      H1410   1.109       .  S
C1405      H1411   1.076       .  S
C1405      C1406   1.349       .  D
C1406      C1437   1.602       .  S
C1407      H1412   1.085       .  S
C1407      C1408   1.350       .  D
C1413      C1415   1.530       .  S
C1413      C1417   1.505       .  S
C1413      C1416   1.556       .  S
C1414      C1418   1.560       .  S
C1414      C1420   1.503       .  S
C1414      C1419   1.671       .  S
C1415      C1423   1.378       .  A
C1415      C1418   1.375       .  A
C1416      C1419   1.430       .  A
C1417      C1431   1.362       .  A
C1417      C1420   1.365       .  A
C1418      C1421   1.396       .  A
C1420      C1428   1.361       .  A
C1421      N1422   1.378       .  A
C1421      H1434   1.076       .  S
N1422      C1423   1.355       .  A
C1423      H1424   1.067       .  S
C1425      N1426   1.404       .  A
C1425      H1435   1.082       .  S
N1426      C1427   1.368       .  A
N1426      N1449   1.472       .  S
C1427      H1433   1.080       .  S
C1428      N1429   1.343       .  A
C1428      H1430   1.065       .  S
N1429      C1431   1.347       .  A
C1431      H1432   1.076       .  S
C1436      C1438   1.534       .  S
C1436      C1440   1.536       .  S
C1436      C1439   1.551       .  S
C1437      C1441   1.565       .  S
C1437      C1443   1.501       .  S
C1437      C1442   1.686       .  S
C1438      C1446   1.382       .  A
C1438      C1441   1.370       .  A
C1439      C1450   1.402       .  A
C1439      C1442   1.427       .  A
C1440      C1454   1.380       .  A
C1440      C1443   1.376       .  A
C1441      C1444   1.407       .  A
C1442      C1448   1.462       .  A
C1443      C1451   1.365       .  A
C1444      N1445   1.371       .  A
C1444      H1457   1.066       .  S
N1445      C1446   1.357       .  A
C1446      H1447   1.077       .  S
C1448      N1449   1.406       .  A
C1448      H1458   1.081       .  S
N1449      C1450   1.365       .  A
C1450      H1456   1.081       .  S
C1451      N1452   1.347       .  A
C1451      H1453   1.066       .  S
N1452      C1454   1.354       .  A
C1454      H1455   1.078       .  S
O1459     Zr1471   2.407   1_554  S
O1459      C3093   1.277       .  A
O1460     Zr3129   2.481   1_455  S
C1461      O3091   1.273   1_455  A
O1462     Zr1474   2.476       .  S
O1462      C1464   1.290       .  A
O1463     Zr1498   2.380       .  S
O1463      C1464   1.274       .  A
O1465     Zr1474   2.421       .  S
O1465      C3099   1.284       .  A
O1466     Zr3129   2.409   1_455  S
O1466      C1467   1.283       .  A
C1467      O3097   1.283   1_455  A
C1467      C1538   1.453       .  S
O1469      C1470   1.278       .  A
Zr1471     O1473   2.435       .  S
Zr1471     O1501   2.366       .  S
Zr1471     O1503   2.349       .  S
O1473      H1514   0.990   1_556  S
Zr1474     O1476   2.436       .  S
Zr1474     O1478   2.348       .  S
Zr1474     O1477   2.378       .  S
Zr1474     O1502   2.364       .  S
Zr1474     O1504   2.355       .  S
O1475      H1516   0.988       .  S
O1475      H1519   0.989       .  S
O1476      H1509   0.990       .  S
O1477     Zr1497   2.374       .  S
O1478     Zr1498   2.420       .  S
O1479     Zr1491   2.452       .  S
O1479      C1481   1.287       .  A
O1480      C1481   1.281       .  A
C1481      C1552   1.489       .  S
O1482     Zr1494   2.379       .  S
O1482      C3116   1.277       .  A
O1483     Zr3129   2.466   1_455  S
O1483      C1484   1.295       .  A
C1484      O3114   1.279   1_455  A
C1484      C1608   1.500       .  S
O1485     Zr1494   2.415       .  S
O1485      C1487   1.265       .  A
O1486     Zr1498   2.423       .  S
O1486      C1487   1.276       .  A
C1487      C1524   1.476       .  S
O1488     Zr1491   2.404       .  S
O1488      C3122   1.282       .  A
O1489     Zr3129   2.407   1_445  S
C1490      O3120   1.282   1_455  A
C1490      C1580   1.451       .  S
Zr1491     O1492   2.438       .  S
Zr1491     O1493   2.433       .  S
Zr1491     O1503   2.368       .  S
Zr1491     O1501   2.355       .  S
O1492      H1512   0.990       .  S
O1492      H1517   0.990       .  S
O1493      H1513   0.990       .  S
Zr1494     O1495   2.432       .  S
Zr1494     O1496   2.433       .  S
Zr1494     O1500   2.371       .  S
Zr1494     O1499   2.345       .  S
Zr1494     O1504   2.362       .  S
Zr1494     O1502   2.365       .  S
O1495      H1511   0.990       .  S
O1496      H1510   0.990       .  S
O1496      H1520   0.990       .  S
Zr1497     O3092   2.492       .  S
Zr1497     O3098   2.435       .  S
Zr1497     O3115   2.467       .  S
Zr1497     O3121   2.399   1_565  S
Zr1497     O1500   2.395       .  S
Zr1497     O1502   2.385       .  S
Zr1498     O1499   2.440       .  S
Zr1498     O1504   2.402       .  S
O1499      H1507   0.963       .  S
O1502      H1506   0.965       .  S
O1503      H1508   0.966       .  S
C1521      C1522   1.403       .  A
C1521      C1526   1.408       .  A
C1522      C1523   1.401       .  A
C1522      C1527   1.449       .  S
C1523      C1524   1.419       .  A
C1523      C1530   1.447       .  S
C1524      C1525   1.420       .  A
C1525      C1526   1.399       .  A
C1525      C1528   1.452       .  S
C1526      C1529   1.451       .  S
C1527      N1534   1.157       .  T
C1528      N1533   1.157       .  T
C1529      N1531   1.157       .  T
C1530      N1532   1.157       .  T
C1535      C1536   1.432       .  A
C1536      C1537   1.390       .  A
C1536      C1541   1.458       .  S
C1537      C1544   1.458       .  S
C1538      C1539   1.404       .  A
C1539      C1540   1.415       .  A
C1539      C1542   1.452       .  S
C1540      C1543   1.447       .  S
C1541      N1548   1.158       .  T
C1542      N1547   1.157       .  T
C1543      N1545   1.158       .  T
C1544      N1546   1.157       .  T
C1549      C1550   1.413       .  A
C1549      C1554   1.402       .  A
C1550      C1551   1.409       .  A
C1550      C1555   1.448       .  S
C1551      C1552   1.425       .  A
C1552      C1553   1.418       .  A
C1553      C1554   1.397       .  A
C1553      C1556   1.449       .  S
C1554      C1557   1.447       .  S
C1555      N1562   1.157       .  T
C1556      N1561   1.157       .  T
C1557      N1559   1.157       .  T
C1558      N1560   1.157       .  T
C1563      C1564   1.407       .  A
C1563      C1568   1.428       .  A
C1564      C1565   1.399       .  A
C1564      C1569   1.454       .  S
C1565      C1566   1.427       .  A
C1565      C1572   1.454       .  S
C1566      C1567   1.402       .  A
C1567      C1568   1.408       .  A
C1567      C1570   1.448       .  S
C1568      C1571   1.450       .  S
C1570      N1575   1.158       .  T
C1571      N1573   1.157       .  T
C1572      N1574   1.158       .  T
C1577      C1578   1.433       .  A
C1577      C1582   1.421       .  A
C1578      C1579   1.391       .  A
C1578      C1583   1.459       .  S
C1579      C1580   1.399       .  A
C1579      C1586   1.458       .  S
C1580      C1581   1.406       .  A
C1581      C1582   1.412       .  A
C1581      C1584   1.451       .  S
C1582      C1585   1.447       .  S
C1583      N1590   1.158       .  T
C1584      N1589   1.157       .  T
C1585      N1587   1.158       .  T
C1591      C1592   1.408       .  A
C1592      C1593   1.402       .  A
C1592      C1597   1.454       .  S
C1593      C1594   1.425       .  A
C1593      C1600   1.450       .  S
C1594      C1595   1.453       .  A
C1596      C1599   1.445       .  S
C1597      N1604   1.157       .  T
C1598      N1603   1.157   1_554  T
C1599      N1601   1.156       .  T
C1600      N1602   1.158       .  T
C1605      C1606   1.438       .  A
C1605      C1610   1.421       .  A
C1606      C1607   1.415       .  A
C1606      C1611   1.452       .  S
C1607      C1608   1.408       .  A
C1607      C1614   1.452       .  S
C1608      C1609   1.418       .  A
C1609      C1610   1.412       .  A
C1609      C1612   1.452       .  S
C1610      C1613   1.452       .  S
C1611      N1618   1.158       .  T
C1612      N3249   1.157   1_455  T
C1613      N1615   1.158       .  T
C1614      N1616   1.158       .  T
N1617      C3244   1.157       .  T
C1619      C1620   1.415       .  A
C1619      C1624   1.441       .  A
C1620      C1621   1.411       .  A
C1620      C1625   1.452       .  S
C1621      C1622   1.423       .  A
C1621      C3260   1.452       .  S
C1622      C1623   1.404       .  A
C1623      C1624   1.412       .  A
C1624      C1627   1.454       .  S
C1625      N1632   1.158       .  T
C1626      N1631   1.157       .  T
C1627      N1629   1.158       .  T
C1628      C3253   1.451       .  S
C1628      N1630   1.157       .  T
C1633      C1634   1.544       .  S
C1633      C1639   1.577       .  S
C1633      C1637   1.541       .  S
C1633      C2027   1.557       .  S
C1634      H1641   1.085       .  S
C1634      C1635   1.350       .  D
C1635      C1636   1.589       .  S
C1635      N1830   1.481       .  S
C1636      C1640   1.648       .  S
C1636      C1638   1.620       .  S
C1636      H1642   1.109       .  S
C1637      H1643   1.085       .  S
C1637      C1638   1.352       .  D
C1638      C1680   1.607       .  S
C1639      H1644   1.084       .  S
C1639      C1640   1.375       .  D
C1640      C1646   1.658       .  S
C1645      C1675   1.643       .  S
C1645      C1647   1.527       .  S
C1645      C1649   1.522       .  S
C1645      C1648   1.646       .  S
C1646      C1650   1.530       .  S
C1646      C1652   1.517       .  S
C1646      C1651   1.660       .  S
C1647      C1655   1.379       .  A
C1647      C1650   1.400       .  A
C1648      C1651   1.453       .  A
C1649      C1663   1.379       .  A
C1649      C1652   1.398       .  A
C1650      C1653   1.384       .  A
C1652      C1660   1.374       .  A
C1653      N1654   1.352       .  A
C1653      H1666   1.079       .  S
N1654      C1722   1.441       .  S
N1654      C1655   1.346       .  A
C1655      H1656   1.077       .  S
C1657      N1658   1.394       .  A
C1657      H1667   1.082       .  S
N1658      C1659   1.398       .  A
N1658      N1740   1.491       .  S
C1659      H1665   1.082       .  S
C1660      N1661   1.343       .  A
C1660      H1662   1.080       .  S
N1661      C1804   1.434       .  S
N1661      C1663   1.348       .  A
C1663      H1664   1.075       .  S
C1668      C1669   1.546       .  S
C1668      C1674   1.574       .  S
C1668      C1672   1.528       .  S
C1668      C2013   1.547       .  S
C1669      H1676   1.085       .  S
C1669      C1670   1.358       .  D
C1670      C1671   1.570       .  S
C1670      N1853   1.479       .  S
C1671      C1675   1.640       .  S
C1671      C1673   1.630       .  S
C1671      H1677   1.110       .  S
C1672      H1678   1.087       .  S
C1672      C1673   1.334       .  D
C1673      C1774   1.594       .  S
C1674      H1679   1.085       .  S
C1674      C1675   1.381       .  D
C1680      C1682   1.500       .  S
C1680      C1684   1.565       .  S
C1680      C1683   1.678       .  S
C1681      C1767   1.532       .  S
C1681      C1685   1.526       .  S
C1681      C1687   1.535       .  S
C1681      C1686   1.537       .  S
C1682      C1690   1.359       .  A
C1682      C1685   1.382       .  A
C1683      C1694   1.457       .  A
C1683      C1686   1.425       .  A
C1684      C1698   1.407       .  A
C1684      C1687   1.382       .  A
C1685      C1688   1.371       .  A
C1686      C1692   1.392       .  A
C1687      C1695   1.378       .  A
C1688      N1689   1.344       .  A
C1688      H1701   1.078       .  S
N1689      C1717   1.424       .  S
N1689      C1690   1.345       .  A
C1690      H1691   1.062       .  S
C1692      N2509   1.358   1_545  A
C1692      H2518   1.079   1_545  S
N1693      C2508   1.359       .  A
N1693      C2510   1.407       .  A
N1693      N1787   1.466       .  S
C1694      N2509   1.404   1_545  A
C1694      H2516   1.081       .  S
C1695      N1696   1.354       .  A
C1695      H1697   1.076       .  S
N1696      C1705   1.477       .  S
N1696      C1698   1.369       .  A
C1698      H1699   1.069       .  S
H1700      C2510   1.081       .  S
H1702      C2508   1.080       .  S
C1703      C1704   1.555       .  S
C1703      C1709   1.542       .  S
C1703      C1707   1.551       .  S
C1703      C2002   1.527       .  S
C1704      H1711   1.086       .  S
C1704      C1705   1.355       .  D
C1705      C1706   1.562       .  S
C1706      C1710   1.643       .  S
C1706      C1708   1.635       .  S
C1706      H1712   1.110       .  S
C1707      H1713   1.080       .  S
C1707      C1708   1.347       .  D
C1708      C1822   1.609       .  S
C1709      H1714   1.085       .  S
C1709      C1710   1.356       .  D
C1710      C1727   1.618       .  S
C1715      C1716   1.547       .  S
C1715      C1721   1.552       .  S
C1715      C1719   1.559       .  S
C1715      C1985   1.525       .  S
C1716      H1723   1.086       .  S
C1716      C1717   1.343       .  D
C1717      C1718   1.522       .  S
C1718      C1722   1.523       .  S
C1718      C1720   1.563       .  S
C1718      H1724   1.112       .  S
C1719      H1725   1.079       .  S
C1719      C1720   1.363       .  D
C1720      C1844   1.525       .  S
C1721      H1726   1.086       .  S
C1721      C1722   1.355       .  D
C1727      C1729   1.523       .  S
C1727      C1731   1.505       .  S
C1727      C1730   1.647       .  S
C1728      C1816   1.621       .  S
C1728      C1732   1.516       .  S
C1728      C1734   1.508       .  S
C1728      C1733   1.649       .  S
C1729      C1737   1.378       .  A
C1729      C1732   1.397       .  A
C1730      C1741   1.443       .  A
C1730      C1733   1.446       .  A
C1731      C1745   1.371       .  A
C1731      C1734   1.389       .  A
C1732      C1735   1.378       .  A
C1733      C1739   1.446       .  A
C1734      C1742   1.371       .  A
C1735      N1736   1.346       .  A
C1735      H1748   1.081       .  S
N1736      C1769   1.430       .  S
N1736      C1737   1.346       .  A
C1737      H1738   1.077       .  S
C1739      N1740   1.396       .  A
C1739      H1749   1.082       .  S
N1740      C1741   1.395       .  A
C1741      H1747   1.081       .  S
C1742      N1743   1.340       .  A
C1742      H1744   1.078       .  S
N1743      C1757   1.422       .  S
N1743      C1745   1.341       .  A
C1745      H1746   1.076       .  S
C1750      C1751   1.561       .  S
C1750      C1756   1.545       .  S
C1750      C1754   1.552       .  S
C1750      C1974   1.529       .  S
C1751      H1758   1.085       .  S
C1751      C1752   1.350       .  D
C1752      C1753   1.521       .  S
C1752      N1837   1.441       .  S
C1753      C1757   1.523       .  S
C1753      C1755   1.558       .  S
C1753      H1759   1.112       .  S
C1754      H1760   1.073       .  S
C1754      C1755   1.362       .  D
C1755      C1775   1.522       .  S
C1756      H1761   1.079       .  S
C1756      C1757   1.347       .  D
C1762      C1763   1.549       .  S
C1762      C1768   1.549       .  S
C1762      C1766   1.567       .  S
C1762      C1957   1.540       .  S
C1763      H1770   1.087       .  S
C1763      C1764   1.338       .  D
C1764      C1765   1.522       .  S
C1764      N1860   1.431       .  S
C1765      C1769   1.523       .  S
C1765      C1767   1.553       .  S
C1765      H1771   1.111       .  S
C1766      H1772   1.068       .  S
C1766      C1767   1.370       .  D
C1768      H1773   1.085       .  S
C1768      C1769   1.356       .  D
C1774      C1776   1.521       .  S
C1774      C1778   1.563       .  S
C1774      C1777   1.664       .  S
C1775      C1779   1.505       .  S
C1775      C1781   1.522       .  S
C1775      C1780   1.560       .  S
C1776      C1784   1.371       .  A
C1776      C1779   1.378       .  A
C1777      C1788   1.455       .  A
C1777      C1780   1.425       .  A
C1778      C1792   1.399       .  A
C1778      C1781   1.369       .  A
C1779      C1782   1.366       .  A
C1780      C1786   1.399       .  A
C1781      C1789   1.377       .  A
C1782      N1783   1.340       .  A
C1782      H1795   1.076       .  S
N1783      C1799   1.429       .  S
N1783      C1784   1.351       .  A
C1784      H1785   1.066       .  S
C1786      N1787   1.364       .  A
C1786      H1796   1.078       .  S
N1787      C1788   1.403       .  A
C1788      H1794   1.082       .  S
C1789      N1790   1.355       .  A
C1789      H1791   1.067       .  S
N1790      C1811   1.483       .  S
N1790      C1792   1.379       .  A
C1792      H1793   1.075       .  S
C1797      C1798   1.549       .  S
C1797      C1803   1.550       .  S
C1797      C1801   1.563       .  S
C1797      C1943   1.536       .  S
C1798      H1805   1.087       .  S
C1798      C1799   1.343       .  D
C1799      C1800   1.519       .  S
C1800      C1804   1.523       .  S
C1800      C1802   1.562       .  S
C1800      H1806   1.111       .  S
C1801      H1807   1.072   1_554  S
C1801      C1802   1.370       .  D
C1802      C1821   1.534       .  S
C1803      H1808   1.086       .  S
C1803      C1804   1.351       .  D
C1809      C1810   1.557       .  S
C1809      C1815   1.538       .  S
C1809      C1813   1.548       .  S
C1809      C1929   1.519       .  S
C1810      H1817   1.086       .  S
C1810      C1811   1.346       .  D
C1811      C1812   1.584       .  S
C1812      C1816   1.648       .  S
C1812      C1814   1.619       .  S
C1812      H1818   1.109       .  S
C1813      H1819   1.077       .  S
C1813      C1814   1.349       .  D
C1814      C1845   1.592       .  S
C1815      H1820   1.085       .  S
C1815      C1816   1.348       .  D
C1821      C1823   1.528       .  S
C1821      C1825   1.516       .  S
C1821      C1824   1.566       .  S
C1822      C1826   1.564       .  S
C1822      C1828   1.524       .  S
C1822      C1827   1.666       .  S
C1823      C1831   1.380       .  A
C1823      C1826   1.372       .  A
C1824      C2243   1.403   1_554  A
C1824      C1827   1.431       .  A
C1825      C1839   1.374       .  A
C1825      C1828   1.374       .  A
C1826      C1829   1.399       .  A
C1827      C2241   1.455   1_554  A
C1828      C1836   1.373       .  A
C1829      N1830   1.379       .  A
C1829      H1842   1.076       .  S
N1830      C1831   1.354       .  A
C1831      H1832   1.068       .  S
C1833      C2235   1.453       .  A
C1833      N1834   1.402       .  A
C1833      H1843   1.082       .  S
N1834      C1835   1.365       .  A
N1834      N1857   1.467       .  S
C1835      C2232   1.402       .  A
C1835      H1841   1.080       .  S
C1836      N1837   1.354       .  A
C1836      H1838   1.067       .  S
N1837      C1839   1.351       .  A
C1839      H1840   1.076       .  S
C1844      C1846   1.539       .  S
C1844      C1848   1.534       .  S
C1844      C1847   1.544       .  S
C1845      C1849   1.560       .  S
C1845      C1851   1.491       .  S
C1845      C1850   1.682       .  S
C1846      C1854   1.382       .  A
C1846      C1849   1.374       .  A
C1847      C1858   1.398       .  A
C1847      C1850   1.427       .  A
C1848      C1862   1.377       .  A
C1848      C1851   1.368       .  A
C1849      C1852   1.404       .  A
C1850      C1856   1.458       .  A
C1851      C1859   1.358       .  A
C1852      N1853   1.368       .  A
C1852      H1865   1.068       .  S
N1853      C1854   1.356       .  A
C1854      H1855   1.077       .  S
C1856      N1857   1.404       .  A
C1856      H1866   1.081       .  S
N1857      C1858   1.363       .  A
C1858      H1864   1.081       .  S
C1859      N1860   1.344       .  A
C1859      H1861   1.063       .  S
N1860      C1862   1.355       .  A
C1862      H1863   1.078       .  S
O1867     Zr1879   2.398       .  S
O1868      C2685   1.297       .  A
C1869      O2684   1.296   1_545  A
C1869      C2438   1.494       .  S
O1870     Zr1882   2.472       .  S
O1870      C1872   1.289       .  A
O1871     Zr1906   2.386       .  S
O1871      C1872   1.274       .  A
C1872      C2379   1.492       .  S
O1873     Zr1882   2.412       .  S
O1874      C1875   1.285       .  A
C1875      C1946   1.456       .  S
O1876     Zr2287   2.409   1_554  S
O1876      C2286   1.261   1_554  A
O1877     Zr2722   2.431   1_545  S
O1877      C1878   1.274       .  A
C1878      O2284   1.263   1_545  A
C1878      C2407   1.476       .  S
Zr1879     O2284   2.421   1_545  S
Zr1879     O2288   2.427       .  S
Zr1879     O1881   2.436       .  S
Zr1879     O2701   2.379   1_545  S
Zr1879     O2702   2.358   1_545  S
Zr1879     O1909   2.357       .  S
Zr1879     O1911   2.367       .  S
O1880     Zr2287   2.425   1_564  S
O1880      H2739   0.990       .  S
O1881      H1922   0.990       .  S
O1881      H2334   0.990       .  S
Zr1882     O2291   2.429       .  S
Zr1882     O1884   2.435       .  S
Zr1882     O1886   2.356       .  S
Zr1882     O1885   2.369       .  S
Zr1882     O1910   2.378       .  S
Zr1882     O1912   2.350       .  S
O1883     Zr2290   2.434   1_554  S
O1883      H1924   0.987       .  S
O1883      H1927   0.989       .  S
O1884      H1917   0.990       .  S
O1885     Zr2695   2.361       .  S
O1885     Zr1905   2.378       .  S
O1886     Zr2695   2.342       .  S
O1886     Zr1906   2.412       .  S
O1886      H2321   0.961       .  S
O1887     Zr1899   2.456       .  S
O1887      C1889   1.285       .  A
O1888     Zr2722   2.385       .  S
O1888      C1889   1.273   1_565  A
C1889      C1960   1.493       .  S
O1890     Zr1902   2.391       .  S
O1891      C1892   1.294       .  A
C1892      C2016   1.490       .  S
O1893     Zr1902   2.416       .  S
O1893      C1895   1.265       .  A
O1894     Zr1906   2.419       .  S
O1894      C1895   1.275       .  A
C1895      C1932   1.473       .  S
O1896     Zr1899   2.425       .  S
O1897      C2714   1.284       .  A
C1898      O2713   1.280       .  A
C1898      C1988   1.448       .  S
Zr1899     O1900   2.434       .  S
Zr1899     O1901   2.436       .  S
Zr1899     O2723   2.356   1_545  S
Zr1899     O2724   2.368   1_545  S
Zr1899     O1911   2.372       .  S
Zr1899     O1909   2.358       .  S
O1900      H1920   0.990       .  S
O1900      H1925   0.990       .  S
O1901      H1921   0.990       .  S
Zr1902     O1903   2.429       .  S
Zr1902     O1904   2.434       .  S
Zr1902     O1908   2.374       .  S
Zr1902     O1907   2.354       .  S
Zr1902     O1912   2.359       .  S
Zr1902     O1910   2.366       .  S
O1903      H1919   0.990       .  S
O1904      H1918   0.990       .  S
O1904      H1928   0.990       .  S
Zr1905     O1908   2.392       .  S
Zr1905     O1910   2.392       .  S
Zr1905     O2727   2.384       .  S
Zr1906     O2693   2.433       .  S
Zr1906     O2704   2.386       .  S
Zr1906     O1907   2.434       .  S
Zr1906     O2725   2.393       .  S
Zr1906     O1912   2.404       .  S
O1907     Zr2715   2.344       .  S
O1907      H1915   0.964       .  S
O1908     Zr2715   2.385       .  S
O1909     Zr2722   2.416   1_545  S
O1910      H1914   0.966       .  S
O1911     Zr2721   2.396   1_545  S
O1911      H1916   0.966       .  S
H1913      O2294   0.962   1_554  S
H1923      O2696   0.990       .  S
H1926      O2289   0.990       .  S
C1929      C1930   1.399       .  A
C1929      C1934   1.408       .  A
C1930      C1931   1.398       .  A
C1930      C1935   1.450       .  S
C1931      C1932   1.419       .  A
C1931      C1938   1.447       .  S
C1932      C1933   1.421       .  A
C1933      C1934   1.398       .  A
C1933      C1936   1.453       .  S
C1934      C1937   1.453       .  S
C1935      N1942   1.157       .  T
C1936      N1941   1.157       .  T
C1937      N1939   1.157       .  T
C1938      N1940   1.157       .  T
C1943      C1944   1.437       .  A
C1943      C2356   1.425   1_554  A
C1944      C1945   1.393       .  A
C1944      C1949   1.460       .  S
C1945      C2354   1.399   1_554  A
C1945      C1952   1.459       .  S
C1946      C2353   1.401       .  A
C1946      C1947   1.408       .  A
C1947      C1948   1.414       .  A
C1947      C1950   1.452       .  S
C1948      C2351   1.424       .  A
C1948      C1951   1.449       .  S
C1949      N1956   1.158       .  T
C1950      N1955   1.157       .  T
C1951      N1953   1.158       .  T
C1952      N1954   1.157       .  T
C1957      C1958   1.414       .  A
C1957      C1962   1.431       .  A
C1958      C1959   1.412       .  A
C1958      C1963   1.448   1_545  S
C1959      C1960   1.424       .  A
C1959      C2782   1.452   1_545  S
C1960      C1961   1.406       .  A
C1961      C1962   1.401       .  A
C1961      C1964   1.455       .  S
C1962      C1965   1.454       .  S
C1963      N1970   1.158       .  T
C1964      N1969   1.157       .  T
C1965      N1967   1.158       .  T
C1966      C2775   1.450       .  S
C1966      N1968   1.157       .  T
C1971      C1972   1.408       .  A
C1971      C1976   1.431       .  A
C1971      C2280   1.491   1_554  S
C1972      C1973   1.397       .  A
C1972      C1977   1.449       .  S
C1973      C1974   1.415       .  A
C1973      C1980   1.447       .  S
C1974      C1975   1.411       .  A
C1975      C1976   1.410       .  A
C1975      C1978   1.449       .  S
C1976      C1979   1.453       .  S
C1977      N2392   1.157       .  T
C1978      N1983   1.158       .  T
C1979      N1981   1.158       .  T
C1980      N1982   1.158       .  T
N1984      C2385   1.157       .  T
C1985      C1986   1.429       .  A
C1985      C1990   1.419       .  A
C1986      C1987   1.392       .  A
C1986      C1991   1.458       .  S
C1987      C1988   1.402       .  A
C1987      C1994   1.457       .  S
C1988      C1989   1.405       .  A
C1989      C1990   1.408       .  A
C1989      C1992   1.452       .  S
C1990      C1993   1.448       .  S
C1991      N1998   1.158       .  T
C1992      N1997   1.157       .  T
C1993      N1995   1.158       .  T
C1994      N2812   1.157       .  T
N1996      C2810   1.157       .  T
C1999      C2000   1.424       .  A
C1999      C2412   1.417   1_554  A
C1999      C2286   1.477   1_554  S
C2000      C2001   1.400       .  A
C2000      C2005   1.452       .  S
C2001      C2002   1.405       .  A
C2001      C2008   1.450       .  S
C2002      C2003   1.401       .  A
C2003      C2412   1.401   1_554  A
C2003      C2414   1.449   1_554  S
C2004      C2407   1.415       .  A
C2004      C2411   1.404       .  A
C2004      C2007   1.447       .  S
C2005      N2012   1.157       .  T
C2006      C2411   1.450       .  S
C2006      N2011   1.157       .  T
C2007      N2009   1.157       .  T
C2008      N2010   1.157       .  T
C2013      C2014   1.437       .  A
C2013      C2018   1.419       .  A
C2014      C2015   1.410       .  A
C2014      C2019   1.453       .  S
C2015      C2016   1.405       .  A
C2015      C2022   1.452       .  S
C2016      C2017   1.418       .  A
C2017      C2018   1.412       .  A
C2017      C2020   1.452       .  S
C2018      C2021   1.452       .  S
C2019      N2026   1.158       .  T
C2021      N2023   1.158       .  T
C2022      N2024   1.158       .  T
C2027      C2028   1.413       .  A
C2027      C2032   1.435       .  A
C2028      C2029   1.415       .  A
C2028      C2033   1.453       .  S
C2029      C2030   1.428       .  A
C2030      C2031   1.411       .  A
C2030      C2277   1.513       .  S
C2031      C2032   1.418       .  A
C2031      C2442   1.451   1_554  S
C2032      C2035   1.452       .  S
C2033      N2040   1.158       .  T
C2034      C2439   1.452       .  S
C2034      N2039   1.158       .  T
C2035      N2037   1.158       .  T
C2036      N2038   1.157   1_445  T
C2041      C2042   1.540       .  S
C2041      C2047   1.579       .  S
C2041      C2045   1.534       .  S
C2041      C2435   1.546       .  S
C2042      H2049   1.086       .  S
C2042      C2043   1.346       .  D
C2043      C2044   1.587       .  S
C2043      N2238   1.477       .  S
C2044      C2048   1.644       .  S
C2044      C2046   1.624       .  S
C2044      H2050   1.109       .  S
C2045      H2051   1.086       .  S
C2045      C2046   1.342       .  D
C2046      C2088   1.602       .  S
C2047      H2052   1.085       .  S
C2047      C2048   1.380       .  D
C2048      C2054   1.655       .  S
C2053      C2083   1.642       .  S
C2053      C2055   1.524       .  S
C2053      C2057   1.519       .  S
C2053      C2056   1.650       .  S
C2054      C2058   1.530       .  S
C2054      C2060   1.524       .  S
C2054      C2059   1.655       .  S
C2055      C2063   1.379       .  A
C2055      C2058   1.400       .  A
C2056      C2059   1.452       .  A
C2057      C2071   1.378       .  A
C2057      C2060   1.397       .  A
C2058      C2061   1.383       .  A
C2060      C2068   1.378       .  A
C2061      N2062   1.351       .  A
C2061      H2074   1.078       .  S
N2062      C2130   1.440       .  S
N2062      C2063   1.346       .  A
C2063      H2064   1.078       .  S
C2065      N2066   1.398       .  A
C2065      H2075   1.082       .  S
N2066      C2067   1.395       .  A
N2066      N2148   1.492       .  S
C2067      H2073   1.082       .  S
C2068      N2069   1.348       .  A
C2068      H2070   1.080       .  S
N2069      C2212   1.438       .  S
N2069      C2071   1.347       .  A
C2071      H2072   1.076       .  S
C2076      C2077   1.551       .  S
C2076      C2082   1.571       .  S
C2076      C2080   1.532       .  S
C2076      C2421   1.551       .  S
C2077      H2084   1.085       .  S
C2077      C2078   1.363       .  D
C2078      C2079   1.571       .  S
C2078      N2261   1.481       .  S
C2079      C2083   1.641       .  S
C2079      C2081   1.634       .  S
C2079      H2085   1.110       .  S
C2080      H2086   1.087       .  S
C2080      C2081   1.340       .  D
C2081      C2182   1.606       .  S
C2082      H2087   1.084       .  S
C2082      C2083   1.373       .  D
C2088      C2090   1.498       .  S
C2088      C2092   1.558       .  S
C2088      C2091   1.685       .  S
C2089      C2175   1.526       .  S
C2089      C2093   1.527       .  S
C2089      C2095   1.532       .  S
C2089      C2094   1.531       .  S
C2090      C2098   1.358       .  A
C2090      C2093   1.381       .  A
C2091      C2102   1.462       .  A
C2091      C2094   1.423       .  A
C2092      C2106   1.404       .  A
C2092      C2095   1.377       .  A
C2093      C2096   1.372       .  A
C2094      C2100   1.388       .  A
C2095      C2103   1.375       .  A
C2096      N2097   1.345       .  A
C2096      H2109   1.078       .  S
N2097      C2125   1.424       .  S
N2097      C2098   1.344       .  A
C2098      H2099   1.063       .  S
C2100      N2917   1.355   1_545  A
C2100      H2926   1.078   1_545  S
N2101      C2916   1.358       .  A
N2101      C2918   1.410       .  A
N2101      N2195   1.470       .  S
C2102      N2917   1.407   1_545  A
C2102      H2924   1.081       .  S
C2103      N2104   1.356       .  A
C2103      H2105   1.075       .  S
N2104      C2113   1.475       .  S
N2104      C2106   1.366       .  A
C2106      H2107   1.068       .  S
H2108      C2918   1.082       .  S
H2110      C2916   1.079       .  S
C2111      C2112   1.551       .  S
C2111      C2117   1.552       .  S
C2111      C2115   1.545       .  S
C2111      C2410   1.531       .  S
C2112      H2119   1.086       .  S
C2112      C2113   1.351       .  D
C2113      C2114   1.565       .  S
C2114      C2118   1.640       .  S
C2114      C2116   1.635       .  S
C2114      H2120   1.110       .  S
C2115      H2121   1.079       .  S
C2115      C2116   1.343       .  D
C2116      C2230   1.601       .  S
C2117      H2122   1.085       .  S
C2117      C2118   1.363       .  D
C2118      C2135   1.628       .  S
C2123      C2124   1.547       .  S
C2123      C2129   1.553       .  S
C2123      C2127   1.567       .  S
C2123      C2393   1.537       .  S
C2124      H2131   1.087       .  S
C2124      C2125   1.343       .  D
C2125      C2126   1.521       .  S
C2126      C2130   1.522       .  S
C2126      C2128   1.559       .  S
C2126      H2132   1.112       .  S
C2127      H2133   1.076       .  S
C2127      C2128   1.370       .  D
C2128      C2252   1.532       .  S
C2129      H2134   1.086       .  S
C2129      C2130   1.354       .  D
C2135      C2137   1.522       .  S
C2135      C2139   1.512       .  S
C2135      C2138   1.649       .  S
C2136      C2224   1.629       .  S
C2136      C2140   1.511       .  S
C2136      C2142   1.509       .  S
C2136      C2141   1.651       .  S
C2137      C2145   1.375       .  A
C2137      C2140   1.396       .  A
C2138      C2149   1.445       .  A
C2138      C2141   1.448       .  A
C2139      C2153   1.374       .  A
C2139      C2142   1.394       .  A
C2140      C2143   1.374       .  A
C2141      C2147   1.445       .  A
C2142      C2150   1.369       .  A
C2143      N2144   1.343       .  A
C2143      H2156   1.078       .  S
N2144      C2177   1.429       .  S
N2144      C2145   1.344       .  A
C2145      H2146   1.076       .  S
C2147      N2148   1.396       .  A
C2147      H2157   1.081       .  S
N2148      C2149   1.396       .  A
C2149      H2155   1.082       .  S
C2150      N2151   1.340       .  A
C2150      H2152   1.079       .  S
N2151      C2165   1.423       .  S
N2151      C2153   1.344       .  A
C2153      H2154   1.078       .  S
C2158      C2159   1.555       .  S
C2158      C2164   1.543       .  S
C2158      C2162   1.561       .  S
C2158      C2382   1.530       .  S
C2159      H2166   1.085       .  S
C2159      C2160   1.344       .  D
C2160      C2161   1.521       .  S
C2160      N2245   1.435       .  S
C2161      C2165   1.522       .  S
C2161      C2163   1.559       .  S
C2161      H2167   1.112       .  S
C2162      H2168   1.076       .  S
C2162      C2163   1.372       .  D
C2163      C2183   1.534       .  S
C2164      H2169   1.080       .  S
C2164      C2165   1.346       .  D
C2170      C2171   1.554       .  S
C2170      C2176   1.552       .  S
C2170      C2174   1.558       .  S
C2170      C2365   1.536       .  S
C2171      H2178   1.086       .  S
C2171      C2172   1.348       .  D
C2172      C2173   1.522       .  S
C2172      N2268   1.437       .  S
C2173      C2177   1.521       .  S
C2173      C2175   1.552       .  S
C2173      H2179   1.112       .  S
C2174      H2180   1.075       .  S
C2174      C2175   1.369       .  D
C2176      H2181   1.077       .  S
C2176      C2177   1.351       .  D
C2182      C2184   1.518       .  S
C2182      C2186   1.567       .  S
C2182      C2185   1.667       .  S
C2183      C2187   1.510       .  S
C2183      C2189   1.529       .  S
C2183      C2188   1.564       .  S
C2184      C2192   1.369       .  A
C2184      C2187   1.383       .  A
C2185      C2196   1.457       .  A
C2185      C2188   1.427       .  A
C2186      C2200   1.401       .  A
C2186      C2189   1.373       .  A
C2187      C2190   1.369       .  A
C2188      C2194   1.402       .  A
C2189      C2197   1.382       .  A
C2190      N2191   1.341       .  A
C2190      H2203   1.077       .  S
N2191      C2207   1.428       .  S
N2191      C2192   1.347       .  A
C2192      H2193   1.066       .  S
C2194      N2195   1.367       .  A
C2194      H2204   1.080       .  S
N2195      C2196   1.404       .  A
C2196      H2202   1.081       .  S
C2197      N2198   1.357       .  A
C2197      H2199   1.067       .  S
N2198      C2219   1.487       .  S
N2198      C2200   1.380       .  A
C2200      H2201   1.075       .  S
C2205      C2206   1.551       .  S
C2205      C2211   1.551       .  S
C2205      C2209   1.557       .  S
C2205      C2351   1.532       .  S
C2206      H2213   1.086       .  S
C2206      C2207   1.345       .  D
C2207      C2208   1.521       .  S
C2208      C2212   1.525       .  S
C2208      C2210   1.560       .  S
C2208      H2214   1.111       .  S
C2209      H2215   1.076       .  S
C2209      C2210   1.366       .  D
C2210      C2229   1.528       .  S
C2211      H2216   1.086       .  S
C2211      C2212   1.355       .  D
C2217      C2218   1.560       .  S
C2217      C2223   1.546       .  S
C2217      C2221   1.544       .  S
C2217      C2337   1.528       .  S
C2218      H2225   1.085       .  S
C2218      C2219   1.346       .  D
C2219      C2220   1.586       .  S
C2220      C2224   1.647       .  S
C2220      C2222   1.623       .  S
C2220      H2226   1.109       .  S
C2221      H2227   1.076       .  S
C2221      C2222   1.349       .  D
C2222      C2253   1.597       .  S
C2223      H2228   1.085       .  S
C2223      C2224   1.355       .  D
C2229      C2231   1.528       .  S
C2229      C2233   1.514       .  S
C2229      C2232   1.563       .  S
C2230      C2234   1.556       .  S
C2230      C2236   1.518       .  S
C2230      C2235   1.666       .  S
C2231      C2239   1.379       .  A
C2231      C2234   1.370       .  A
C2232      C2235   1.430       .  A
C2233      C2247   1.372       .  A
C2233      C2236   1.372       .  A
C2234      C2237   1.394       .  A
C2236      C2244   1.368       .  A
C2237      N2238   1.376       .  A
C2237      H2250   1.076       .  S
N2238      C2239   1.355       .  A
C2239      H2240   1.067       .  S
C2241      N2242   1.402       .  A
C2241      H2251   1.082       .  S
N2242      C2243   1.366       .  A
N2242      N2265   1.468       .  S
C2243      H2249   1.080       .  S
C2244      N2245   1.351       .  A
C2244      H2246   1.065       .  S
N2245      C2247   1.350       .  A
C2247      H2248   1.076       .  S
C2252      C2254   1.539       .  S
C2252      C2256   1.539       .  S
C2252      C2255   1.549       .  S
C2253      C2257   1.560       .  S
C2253      C2259   1.497       .  S
C2253      C2258   1.679       .  S
C2254      C2262   1.384       .  A
C2254      C2257   1.372       .  A
C2255      C2266   1.400       .  A
C2255      C2258   1.427       .  A
C2256      C2270   1.382       .  A
C2256      C2259   1.374       .  A
C2257      C2260   1.402       .  A
C2258      C2264   1.457       .  A
C2259      C2267   1.361       .  A
C2260      N2261   1.369       .  A
C2260      H2273   1.067       .  S
N2261      C2262   1.359       .  A
C2262      H2263   1.077       .  S
C2264      N2265   1.403       .  A
C2264      H2274   1.081       .  S
N2265      C2266   1.365       .  A
C2266      H2272   1.081       .  S
C2267      N2268   1.346       .  A
C2267      H2269   1.064       .  S
N2268      C2270   1.356       .  A
C2270      H2271   1.078       .  S
O2275     Zr2287   2.378   1_554  S
O2276      C3093   1.293   1_556  A
C2277      O3092   1.300   1_544  A
O2278     Zr2290   2.481       .  S
O2278      C2280   1.292       .  A
O2279     Zr2314   2.377       .  S
O2279      C2280   1.273       .  A
O2281     Zr2290   2.428       .  S
O2282      C2283   1.282       .  A
C2283      C2354   1.456       .  S
O2285     Zr3130   2.434   1_545  S
O2285      C2286   1.276       .  A
Zr2287     O2289   2.436   1_556  S
Zr2287     O3109   2.376   1_545  S
Zr2287     O3110   2.346   1_545  S
Zr2287     O2317   2.364       .  S
Zr2287     O2319   2.356       .  S
O2288      H3147   0.990   1_545  S
O2289      H2330   0.990       .  S
Zr2290     O2292   2.435       .  S
Zr2290     O2294   2.347       .  S
Zr2290     O2293   2.367       .  S
Zr2290     O2318   2.367       .  S
Zr2290     O2320   2.354       .  S
O2291      H2332   0.987       .  S
O2291      H2335   0.988       .  S
O2292      H2325   0.990       .  S
O2293     Zr3103   2.366       .  S
O2293     Zr2313   2.376       .  S
O2294     Zr3103   2.343       .  S
O2294     Zr2314   2.447       .  S
O2295     Zr2307   2.473       .  S
O2295      C2297   1.291       .  A
O2296     Zr3130   2.378   1_545  S
O2296      C2297   1.276       .  A
C2297      C2368   1.497       .  S
O2298     Zr2310   2.371       .  S
O2299      C2300   1.293       .  A
C2300      C2424   1.500       .  S
O2301     Zr2310   2.411       .  S
O2301      C2303   1.261       .  A
O2302     Zr2314   2.435       .  S
O2302      C2303   1.272       .  A
C2303      C2340   1.476       .  S
O2304     Zr2307   2.411       .  S
O2305      C3122   1.281       .  A
C2306      O3121   1.282       .  A
C2306      C2396   1.457       .  S
Zr2307     O2308   2.435       .  S
Zr2307     O2309   2.434       .  S
Zr2307     O3131   2.334   1_545  S
Zr2307     O3132   2.377   1_545  S
Zr2307     O2319   2.369       .  S
Zr2307     O2317   2.351       .  S
O2308      H2328   0.990       .  S
O2308      H2333   0.989       .  S
O2309      H2329   0.990       .  S
Zr2310     O2311   2.426       .  S
Zr2310     O2312   2.437       .  S
Zr2310     O2316   2.381       .  S
Zr2310     O2315   2.357       .  S
Zr2310     O2320   2.347       .  S
Zr2310     O2318   2.357       .  S
O2311      H2327   0.990       .  S
O2312      H2326   0.990       .  S
O2312      H2336   0.990       .  S
Zr2313     O2316   2.391       .  S
Zr2313     O2318   2.395       .  S
Zr2313     O3135   2.386       .  S
Zr2314     O3101   2.456       .  S
Zr2314     O3112   2.396       .  S
Zr2314     O2315   2.457       .  S
Zr2314     O3133   2.415       .  S
Zr2314     O2320   2.419       .  S
O2315     Zr3123   2.349       .  S
O2315      H2323   0.967       .  S
O2316     Zr3123   2.373       .  S
O2317     Zr3130   2.409   1_545  S
O2318      H2322   0.966       .  S
O2319     Zr3129   2.388   1_545  S
O2319      H2324   0.966       .  S
H2331      O3104   0.989       .  S
C2337      C2338   1.409       .  A
C2337      C2342   1.406       .  A
C2338      C2339   1.408       .  A
C2338      C2343   1.450       .  S
C2339      C2340   1.417       .  A
C2339      C2346   1.447       .  S
C2340      C2341   1.417       .  A
C2341      C2342   1.396       .  A
C2341      C2344   1.452       .  S
C2342      C2345   1.452       .  S
C2343      N2350   1.158       .  T
C2344      N2349   1.157       .  T
C2345      N2347   1.157       .  T
C2346      N2348   1.157       .  T
C2351      C2352   1.427       .  A
C2352      C2353   1.392       .  A
C2352      C2357   1.458       .  S
C2353      C2360   1.456       .  S
C2354      C2355   1.404       .  A
C2355      C2356   1.413       .  A
C2355      C2358   1.452       .  S
C2356      C2359   1.447       .  S
C2357      N2364   1.158       .  T
C2358      N2363   1.157       .  T
C2359      N2361   1.158       .  T
C2360      N2362   1.157       .  T
C2365      C2366   1.416       .  A
C2365      C2370   1.415       .  A
C2366      C2367   1.414       .  A
C2366      C2371   1.449   1_545  S
C2367      C2368   1.430       .  A
C2367      C3190   1.454   1_545  S
C2368      C2369   1.411       .  A
C2369      C2370   1.397       .  A
C2369      C2372   1.451       .  S
C2370      C2373   1.446       .  S
C2371      N2378   1.158       .  T
C2372      N2377   1.157       .  T
C2373      N2375   1.158       .  T
C2374      C3183   1.449       .  S
C2374      N2376   1.157       .  T
C2379      C2380   1.408       .  A
C2379      C2384   1.431       .  A
C2380      C2381   1.400       .  A
C2380      C2385   1.451       .  S
C2381      C2382   1.418       .  A
C2381      C2388   1.447       .  S
C2382      C2383   1.404       .  A
C2383      C2384   1.409       .  A
C2383      C2386   1.448       .  S
C2384      C2387   1.451       .  S
C2386      N2391   1.158       .  T
C2387      N2389   1.158       .  T
C2388      N2390   1.158       .  T
C2393      C2394   1.436       .  A
C2393      C2398   1.423       .  A
C2394      C2395   1.396       .  A
C2394      C2399   1.459       .  S
C2395      C2396   1.399       .  A
C2395      C2402   1.457       .  S
C2396      C2397   1.403       .  A
C2397      C2398   1.412       .  A
C2397      C2400   1.452       .  S
C2398      C2401   1.446       .  S
C2399      N2406   1.158       .  T
C2400      N2405   1.157       .  T
C2401      N2403   1.158       .  T
C2402      N3220   1.157       .  T
N2404      C3218   1.157       .  T
C2407      C2408   1.417       .  A
C2408      C2409   1.398       .  A
C2408      C2413   1.452       .  S
C2409      C2410   1.409       .  A
C2409      C2416   1.450       .  S
C2410      C2411   1.409       .  A
C2412      C2415   1.446       .  S
C2413      N2420   1.157       .  T
C2414      N2419   1.157       .  T
C2415      N2417   1.156       .  T
C2416      N2418   1.157       .  T
C2421      C2422   1.437       .  A
C2421      C2426   1.421       .  A
C2422      C2423   1.415       .  A
C2422      C2427   1.453       .  S
C2423      C2424   1.407       .  A
C2423      C2430   1.452       .  S
C2424      C2425   1.418       .  A
C2425      C2426   1.411       .  A
C2425      C2428   1.453       .  S
C2426      C2429   1.451       .  S
C2427      N2434   1.158       .  T
C2429      N2431   1.158       .  T
C2430      N2432   1.158       .  T
C2435      C2436   1.414       .  A
C2435      C2440   1.440       .  A
C2436      C2437   1.409       .  A
C2436      C2441   1.451       .  S
C2437      C2438   1.420       .  A
C2438      C2439   1.404       .  A
C2439      C2440   1.412       .  A
C2440      C2443   1.454       .  S
C2441      N2448   1.157       .  T
C2442      N2447   1.158       .  T
C2443      N2445   1.158       .  T
C2444      N2446   1.157   1_545  T
C2449      C2450   1.546       .  S
C2449      C2455   1.577       .  S
C2449      C2453   1.540       .  S
C2449      C2843   1.556       .  S
C2450      H2457   1.086       .  S
C2450      C2451   1.350       .  D
C2451      C2452   1.588       .  S
C2451      N2646   1.482       .  S
C2452      C2456   1.647       .  S
C2452      C2454   1.629       .  S
C2452      H2458   1.109       .  S
C2453      H2459   1.086       .  S
C2453      C2454   1.346       .  D
C2454      C2496   1.614       .  S
C2455      H2460   1.083       .  S
C2455      C2456   1.377       .  D
C2456      C2462   1.656       .  S
C2461      C2491   1.639       .  S
C2461      C2463   1.522       .  S
C2461      C2465   1.520       .  S
C2461      C2464   1.646       .  S
C2462      C2466   1.526       .  S
C2462      C2468   1.526       .  S
C2462      C2467   1.658       .  S
C2463      C2471   1.377       .  A
C2463      C2466   1.400       .  A
C2464      C2467   1.452       .  A
C2465      C2479   1.379       .  A
C2465      C2468   1.398       .  A
C2466      C2469   1.382       .  A
C2468      C2476   1.379       .  A
C2469      N2470   1.349       .  A
C2469      H2482   1.078       .  S
N2470      C2538   1.436       .  S
N2470      C2471   1.343       .  A
C2471      H2472   1.077       .  S
C2473      N2474   1.397       .  A
C2473      H2483   1.082       .  S
N2474      C2475   1.394       .  A
N2474      N2556   1.490       .  S
C2475      H2481   1.082       .  S
C2476      N2477   1.350       .  A
C2476      H2478   1.080       .  S
N2477      C2620   1.440       .  S
N2477      C2479   1.347       .  A
C2479      H2480   1.077       .  S
C2484      C2485   1.540       .  S
C2484      C2490   1.573       .  S
C2484      C2488   1.532       .  S
C2484      C2829   1.545       .  S
C2485      H2492   1.085       .  S
C2485      C2486   1.355       .  D
C2486      C2487   1.571       .  S
C2486      N2669   1.475       .  S
C2487      C2491   1.638       .  S
C2487      C2489   1.632       .  S
C2487      H2493   1.110       .  S
C2488      H2494   1.087       .  S
C2488      C2489   1.339       .  D
C2489      C2590   1.601       .  S
C2490      H2495   1.084       .  S
C2490      C2491   1.377       .  D
C2496      C2498   1.501       .  S
C2496      C2500   1.560       .  S
C2496      C2499   1.689       .  S
C2497      C2583   1.536       .  S
C2497      C2501   1.532       .  S
C2497      C2503   1.540       .  S
C2497      C2502   1.534       .  S
C2498      C2506   1.361       .  A
C2498      C2501   1.379       .  A
C2499      C2510   1.462       .  A
C2499      C2502   1.428       .  A
C2500      C2514   1.404       .  A
C2500      C2503   1.378       .  A
C2501      C2504   1.376       .  A
C2502      C2508   1.391       .  A
C2503      C2511   1.380       .  A
C2504      N2505   1.349       .  A
C2504      H2517   1.078       .  S
N2505      C2533   1.433       .  S
N2505      C2506   1.346       .  A
C2506      H2507   1.062       .  S
N2509      N2603   1.463       .  S
C2511      N2512   1.358       .  A
C2511      H2513   1.076       .  S
N2512      C2521   1.478       .  S
N2512      C2514   1.367       .  A
C2514      H2515   1.067       .  S
C2519      C2520   1.551       .  S
C2519      C2525   1.546       .  S
C2519      C2523   1.551       .  S
C2519      C2818   1.531       .  S
C2520      H2527   1.086       .  S
C2520      C2521   1.352       .  D
C2521      C2522   1.568       .  S
C2522      C2526   1.642       .  S
C2522      C2524   1.636       .  S
C2522      H2528   1.110       .  S
C2523      H2529   1.079       .  S
C2523      C2524   1.347       .  D
C2524      C2638   1.611       .  S
C2525      H2530   1.085       .  S
C2525      C2526   1.359       .  D
C2526      C2543   1.621       .  S
C2531      C2532   1.550       .  S
C2531      C2537   1.550       .  S
C2531      C2535   1.568       .  S
C2531      C2801   1.536       .  S
C2532      H2539   1.087       .  S
C2532      C2533   1.344       .  D
C2533      C2534   1.526       .  S
C2534      C2538   1.520       .  S
C2534      C2536   1.565       .  S
C2534      H2540   1.112       .  S
C2535      H2541   1.078       .  S
C2535      C2536   1.372       .  D
C2536      C2660   1.540       .  S
C2537      H2542   1.086       .  S
C2537      C2538   1.352       .  D
C2543      C2545   1.524       .  S
C2543      C2547   1.511       .  S
C2543      C2546   1.647       .  S
C2544      C2632   1.626       .  S
C2544      C2548   1.514       .  S
C2544      C2550   1.511       .  S
C2544      C2549   1.651       .  S
C2545      C2553   1.378       .  A
C2545      C2548   1.394       .  A
C2546      C2557   1.443       .  A
C2546      C2549   1.447       .  A
C2547      C2561   1.377       .  A
C2547      C2550   1.392       .  A
C2548      C2551   1.380       .  A
C2549      C2555   1.445       .  A
C2550      C2558   1.372       .  A
C2551      N2552   1.346       .  A
C2551      H2564   1.081       .  S
N2552      C2585   1.433       .  S
N2552      C2553   1.347       .  A
C2553      H2554   1.075       .  S
C2555      N2556   1.396       .  A
C2555      H2565   1.082       .  S
N2556      C2557   1.395       .  A
C2557      H2563   1.082       .  S
C2558      N2559   1.341       .  A
C2558      H2560   1.078       .  S
N2559      C2573   1.426       .  S
N2559      C2561   1.344       .  A
C2561      H2562   1.078       .  S
C2566      C2567   1.554       .  S
C2566      C2572   1.542       .  S
C2566      C2570   1.562       .  S
C2566      C2790   1.527       .  S
C2567      H2574   1.086       .  S
C2567      C2568   1.339       .  D
C2568      C2569   1.519       .  S
C2568      N2653   1.431       .  S
C2569      C2573   1.524       .  S
C2569      C2571   1.558       .  S
C2569      H2575   1.111       .  S
C2570      H2576   1.072       .  S
C2570      C2571   1.367       .  D
C2571      C2591   1.529       .  S
C2572      H2577   1.085       .  S
C2572      C2573   1.350       .  D
C2578      C2579   1.539       .  S
C2578      C2584   1.550       .  S
C2578      C2582   1.575       .  S
C2578      C2773   1.539       .  S
C2579      H2586   1.088       .  S
C2579      C2580   1.331       .  D
C2580      C2581   1.517       .  S
C2580      N2676   1.418       .  S
C2581      C2585   1.520       .  S
C2581      C2583   1.551       .  S
C2581      H2587   1.111       .  S
C2582      H2588   1.074       .  S
C2582      C2583   1.378       .  D
C2584      H2589   1.085       .  S
C2584      C2585   1.358       .  D
C2590      C2592   1.519       .  S
C2590      C2594   1.557       .  S
C2590      C2593   1.663       .  S
C2591      C2595   1.507       .  S
C2591      C2597   1.524       .  S
C2591      C2596   1.559       .  S
C2592      C2600   1.368       .  A
C2592      C2595   1.379       .  A
C2593      C2604   1.453       .  A
C2593      C2596   1.428       .  A
C2594      C2608   1.394       .  A
C2594      C2597   1.371       .  A
C2595      C2598   1.367       .  A
C2596      C2602   1.397       .  A
C2597      C2605   1.376       .  A
C2598      N2599   1.342       .  A
C2598      H2611   1.077       .  S
N2599      C2615   1.428       .  S
N2599      C2600   1.350       .  A
C2600      H2601   1.065       .  S
C2602      N2603   1.364       .  A
C2602      H2612   1.079       .  S
N2603      C2604   1.401       .  A
C2604      H2610   1.081       .  S
C2605      N2606   1.354       .  A
C2605      H2607   1.067       .  S
N2606      C2627   1.477       .  S
N2606      C2608   1.377       .  A
C2608      H2609   1.075       .  S
C2613      C2614   1.547       .  S
C2613      C2619   1.552       .  S
C2613      C2617   1.567       .  S
C2613      C2759   1.546       .  S
C2614      H2621   1.086       .  S
C2614      C2615   1.344       .  D
C2615      C2616   1.524       .  S
C2616      C2620   1.524       .  S
C2616      C2618   1.559       .  S
C2616      H2622   1.111       .  S
C2617      H2623   1.076   1_554  S
C2617      C2618   1.376       .  D
C2618      C2637   1.542       .  S
C2619      H2624   1.086       .  S
C2619      C2620   1.357       .  D
C2625      C2626   1.554       .  S
C2625      C2631   1.540       .  S
C2625      C2629   1.548       .  S
C2625      C2745   1.518       .  S
C2626      H2633   1.086       .  S
C2626      C2627   1.343       .  D
C2627      C2628   1.581       .  S
C2628      C2632   1.649       .  S
C2628      C2630   1.624       .  S
C2628      H2634   1.109       .  S
C2629      H2635   1.079       .  S
C2629      C2630   1.348       .  D
C2630      C2661   1.599       .  S
C2631      H2636   1.086       .  S
C2631      C2632   1.351       .  D
C2637      C2639   1.533       .  S
C2637      C2641   1.514       .  S
C2637      C2640   1.563       .  S
C2638      C2642   1.560       .  S
C2638      C2644   1.517       .  S
C2638      C2643   1.670       .  S
C2639      C2647   1.381       .  A
C2639      C2642   1.375       .  A
C2640      C3059   1.401   1_554  A
C2640      C2643   1.431       .  A
C2641      C2655   1.370       .  A
C2641      C2644   1.377       .  A
C2642      C2645   1.397       .  A
C2643      C3057   1.457   1_554  A
C2644      C2652   1.367       .  A
C2645      N2646   1.378       .  A
C2645      H2658   1.076       .  S
N2646      C2647   1.357       .  A
C2647      H2648   1.066       .  S
C2649      C3051   1.455       .  A
C2649      N2650   1.402       .  A
C2649      H2659   1.081       .  S
N2650      C2651   1.365       .  A
N2650      N2673   1.467       .  S
C2651      C3048   1.401       .  A
C2651      H2657   1.079       .  S
C2652      N2653   1.349       .  A
C2652      H2654   1.066       .  S
N2653      C2655   1.348       .  A
C2655      H2656   1.076       .  S
C2660      C2662   1.543       .  S
C2660      C2664   1.527       .  S
C2660      C2663   1.547       .  S
C2661      C2665   1.555       .  S
C2661      C2667   1.484       .  S
C2661      C2666   1.683       .  S
C2662      C2670   1.379       .  A
C2662      C2665   1.382       .  A
C2663      C2674   1.398       .  A
C2663      C2666   1.429       .  A
C2664      C2678   1.368       .  A
C2664      C2667   1.367       .  A
C2665      C2668   1.401       .  A
C2666      C2672   1.457       .  A
C2667      C2675   1.351       .  A
C2668      N2669   1.364       .  A
C2668      H2681   1.068       .  S
N2669      C2670   1.358       .  A
C2670      H2671   1.077       .  S
C2672      N2673   1.404       .  A
C2672      H2682   1.081       .  S
N2673      C2674   1.365       .  A
C2674      H2680   1.081       .  S
C2675      N2676   1.340       .  A
C2675      H2677   1.061       .  S
N2676      C2678   1.351       .  A
C2678      H2679   1.077       .  S
O2683     Zr2695   2.367       .  S
C2685      C3254   1.497       .  S
O2686     Zr2698   2.465       .  S
O2686      C2688   1.288       .  A
O2687     Zr2722   2.386       .  S
O2687      C2688   1.275       .  A
C2688      C3195   1.492       .  S
O2689     Zr2698   2.411       .  S
O2690      C2691   1.281       .  A
C2691      C2762   1.453       .  S
O2692     Zr3103   2.395   1_554  S
O2692      C3102   1.257       .  A
O2693      C2694   1.285       .  A
C2694      O3100   1.266       .  A
C2694      C3223   1.494       .  S
Zr2695     O3100   2.392       .  S
Zr2695     O3104   2.427       .  S
Zr2695     O2697   2.435       .  S
Zr2695     O2725   2.359       .  S
Zr2695     O2727   2.358       .  S
O2696     Zr3103   2.424   1_554  S
O2697      H2738   0.990       .  S
O2697      H3150   0.990       .  S
Zr2698     O3107   2.436       .  S
Zr2698     O2700   2.431       .  S
Zr2698     O2702   2.348       .  S
Zr2698     O2701   2.367       .  S
Zr2698     O2726   2.372       .  S
Zr2698     O2728   2.353       .  S
O2699     Zr3106   2.436   1_554  S
O2699      H2740   0.988       .  S
O2699      H2743   0.989       .  S
O2700      H2733   0.990       .  S
O2701     Zr2721   2.378       .  S
O2702     Zr2722   2.448       .  S
O2702      H3137   0.963       .  S
O2703     Zr2715   2.470       .  S
O2703      C2705   1.288       .  A
O2704      C2705   1.274       .  A
C2705      C2776   1.496       .  S
O2706     Zr2718   2.407       .  S
O2707      C2708   1.296       .  A
C2708      C2832   1.499       .  S
O2709     Zr2718   2.420       .  S
O2709      C2711   1.262       .  A
O2710     Zr2722   2.417       .  S
O2710      C2711   1.268       .  A
C2711      C2748   1.464       .  S
O2712     Zr2715   2.421       .  S
C2714      C2804   1.456       .  S
Zr2715     O2716   2.434       .  S
Zr2715     O2717   2.435       .  S
Zr2715     O2727   2.372       .  S
Zr2715     O2725   2.351       .  S
O2716      H2736   0.990       .  S
O2716      H2741   0.990       .  S
O2717      H2737   0.990       .  S
Zr2718     O2719   2.425       .  S
Zr2718     O2720   2.436       .  S
Zr2718     O2724   2.373       .  S
Zr2718     O2723   2.361       .  S
Zr2718     O2728   2.360       .  S
Zr2718     O2726   2.357       .  S
O2719      H2735   0.990       .  S
O2720      H2734   0.989       .  S
O2720      H2744   0.990       .  S
Zr2721     O2724   2.383       .  S
Zr2721     O2726   2.392       .  S
Zr2722     O2723   2.468       .  S
Zr2722     O2728   2.415       .  S
O2723      H2731   0.969       .  S
O2726      H2730   0.965       .  S
O2727      H2732   0.966       .  S
H2729      O3110   0.963   1_554  S
H2742      O3105   0.990       .  S
C2745      C2746   1.403       .  A
C2745      C2750   1.407       .  A
C2746      C2747   1.402       .  A
C2746      C2751   1.451       .  S
C2747      C2748   1.417       .  A
C2747      C2754   1.446       .  S
C2748      C2749   1.417       .  A
C2749      C2750   1.394       .  A
C2749      C2752   1.453       .  S
C2750      C2753   1.452       .  S
C2751      N2758   1.157       .  T
C2752      N2757   1.157       .  T
C2753      N2755   1.157       .  T
C2754      N2756   1.157       .  T
C2759      C2760   1.433       .  A
C2759      C3172   1.423   1_554  A
C2760      C2761   1.399       .  A
C2760      C2765   1.457       .  S
C2761      C3170   1.401   1_554  A
C2761      C2768   1.457       .  S
C2762      C3169   1.400       .  A
C2762      C2763   1.406       .  A
C2763      C2764   1.413       .  A
C2763      C2766   1.452       .  S
C2764      C3167   1.422       .  A
C2764      C2767   1.448       .  S
C2765      N2772   1.158       .  T
C2766      N2771   1.157       .  T
C2767      N2769   1.158       .  T
C2768      N2770   1.157       .  T
C2773      C2774   1.404       .  A
C2773      C2778   1.432       .  A
C2774      C2775   1.411       .  A
C2774      C2779   1.448       .  S
C2775      C2776   1.429       .  A
C2776      C2777   1.407       .  A
C2777      C2778   1.403       .  A
C2777      C2780   1.455       .  S
C2778      C2781   1.454       .  S
C2779      N2786   1.158       .  T
C2780      N2785   1.158       .  T
C2781      N2783   1.158       .  T
C2782      N2784   1.158       .  T
C2787      C2788   1.406       .  A
C2787      C2792   1.428       .  A
C2787      C3096   1.487   1_554  S
C2788      C2789   1.399       .  A
C2788      C2793   1.452       .  S
C2789      C2790   1.422       .  A
C2789      C2796   1.452       .  S
C2790      C2791   1.403       .  A
C2791      C2792   1.408       .  A
C2791      C2794   1.448       .  S
C2792      C2795   1.449       .  S
C2793      N3208   1.157   1_554  T
C2794      N2799   1.158       .  T
C2795      N2797   1.157       .  T
C2796      N2798   1.158       .  T
N2800      C3201   1.157       .  T
C2801      C2802   1.433       .  A
C2801      C2806   1.421       .  A
C2802      C2803   1.393       .  A
C2802      C2807   1.458       .  S
C2803      C2804   1.398       .  A
C2803      C2810   1.457       .  S
C2804      C2805   1.408       .  A
C2805      C2806   1.415       .  A
C2805      C2808   1.452       .  S
C2806      C2809   1.447       .  S
C2807      N2814   1.158       .  T
C2808      N2813   1.157       .  T
C2809      N2811   1.158       .  T
C2815      C2816   1.424       .  A
C2815      C3228   1.415       .  A
C2815      C3102   1.482       .  S
C2816      C2817   1.402       .  A
C2816      C2821   1.454       .  S
C2817      C2818   1.411       .  A
C2817      C2824   1.453       .  S
C2818      C2819   1.405       .  A
C2819      C3228   1.402       .  A
C2819      C3230   1.450   1_554  S
C2820      C3223   1.407       .  A
C2820      C3227   1.407       .  A
C2820      C2823   1.459       .  S
C2821      N2828   1.157       .  T
C2822      C3227   1.455       .  S
C2822      N2827   1.158       .  T
C2823      N2825   1.158       .  T
C2824      N2826   1.157       .  T
C2829      C2830   1.438       .  A
C2829      C2834   1.415       .  A
C2830      C2831   1.412       .  A
C2830      C2835   1.454       .  S
C2831      C2832   1.407       .  A
C2831      C2838   1.451       .  S
C2832      C2833   1.421       .  A
C2833      C2834   1.409       .  A
C2833      C2836   1.451       .  S
C2834      C2837   1.452       .  S
C2835      N2842   1.158       .  T
C2837      N2839   1.158       .  T
C2838      N2840   1.158       .  T
C2843      C2844   1.418       .  A
C2843      C2848   1.438       .  A
C2844      C2845   1.416       .  A
C2844      C2849   1.451       .  S
C2845      C2846   1.424       .  A
C2846      C2847   1.410       .  A
C2846      C3093   1.513       .  S
C2847      C2848   1.415       .  A
C2847      C3258   1.452       .  S
C2848      C2851   1.455       .  S
C2849      N2856   1.158       .  T
C2850      C3255   1.453       .  S
C2850      N2855   1.158       .  T
C2851      N2853   1.158       .  T
C2852      N2854   1.157       .  T
C2857      C2858   1.540       .  S
C2857      C2863   1.578       .  S
C2857      C2861   1.542       .  S
C2857      C3251   1.551       .  S
C2858      H2865   1.084       .  S
C2858      C2859   1.345       .  D
C2859      C2860   1.592       .  S
C2859      N3054   1.481       .  S
C2860      C2864   1.643       .  S
C2860      C2862   1.630       .  S
C2860      H2866   1.109       .  S
C2861      H2867   1.086       .  S
C2861      C2862   1.347       .  D
C2862      C2904   1.613       .  S
C2863      H2868   1.085       .  S
C2863      C2864   1.379       .  D
C2864      C2870   1.656       .  S
C2869      C2899   1.645       .  S
C2869      C2871   1.527       .  S
C2869      C2873   1.519       .  S
C2869      C2872   1.649       .  S
C2870      C2874   1.532       .  S
C2870      C2876   1.522       .  S
C2870      C2875   1.650       .  S
C2871      C2879   1.380       .  A
C2871      C2874   1.401       .  A
C2872      C2875   1.453       .  A
C2873      C2887   1.377       .  A
C2873      C2876   1.399       .  A
C2874      C2877   1.386       .  A
C2876      C2884   1.377       .  A
C2877      N2878   1.353       .  A
C2877      H2890   1.079       .  S
N2878      C2946   1.443       .  S
N2878      C2879   1.347       .  A
C2879      H2880   1.077       .  S
C2881      N2882   1.397       .  A
C2881      H2891   1.082       .  S
N2882      C2883   1.397       .  A
N2882      N2964   1.494       .  S
C2883      H2889   1.082       .  S
C2884      N2885   1.346       .  A
C2884      H2886   1.080       .  S
N2885      C3028   1.435       .  S
N2885      C2887   1.346       .  A
C2887      H2888   1.075       .  S
C2892      C2893   1.545       .  S
C2892      C2898   1.576       .  S
C2892      C2896   1.528       .  S
C2892      C3237   1.547       .  S
C2893      H2900   1.085       .  S
C2893      C2894   1.358       .  D
C2894      C2895   1.571       .  S
C2894      N3077   1.478       .  S
C2895      C2899   1.638       .  S
C2895      C2897   1.632       .  S
C2895      H2901   1.110       .  S
C2896      H2902   1.087       .  S
C2896      C2897   1.335       .  D
C2897      C2998   1.596       .  S
C2898      H2903   1.085       .  S
C2898      C2899   1.380       .  D
C2904      C2906   1.499       .  S
C2904      C2908   1.558       .  S
C2904      C2907   1.694       .  S
C2905      C2991   1.534       .  S
C2905      C2909   1.522       .  S
C2905      C2911   1.539       .  S
C2905      C2910   1.537       .  S
C2906      C2914   1.359       .  A
C2906      C2909   1.376       .  A
C2907      C2918   1.467       .  A
C2907      C2910   1.428       .  A
C2908      C2922   1.404       .  A
C2908      C2911   1.380       .  A
C2909      C2912   1.368       .  A
C2910      C2916   1.393       .  A
C2911      C2919   1.379       .  A
C2912      N2913   1.344       .  A
C2912      H2925   1.078       .  S
N2913      C2941   1.425       .  S
N2913      C2914   1.347       .  A
C2914      H2915   1.061       .  S
N2917      N3011   1.464       .  S
C2919      N2920   1.357       .  A
C2919      H2921   1.075       .  S
N2920      C2929   1.476       .  S
N2920      C2922   1.364       .  A
C2922      H2923   1.065       .  S
C2927      C2928   1.541       .  S
C2927      C2933   1.567       .  S
C2927      C2931   1.538       .  S
C2927      C3226   1.546       .  S
C2928      H2935   1.089       .  S
C2928      C2929   1.339       .  D
C2929      C2930   1.564       .  S
C2930      C2934   1.642       .  S
C2930      C2932   1.638       .  S
C2930      H2936   1.110       .  S
C2931      H2937   1.083       .  S
C2931      C2932   1.341       .  D
C2932      C3046   1.605       .  S
C2933      H2938   1.080       .  S
C2933      C2934   1.371       .  D
C2934      C2951   1.628       .  S
C2939      C2940   1.545       .  S
C2939      C2945   1.556       .  S
C2939      C2943   1.559       .  S
C2939      C3209   1.530       .  S
C2940      H2947   1.087       .  S
C2940      C2941   1.339       .  D
C2941      C2942   1.525       .  S
C2942      C2946   1.520       .  S
C2942      C2944   1.566       .  S
C2942      H2948   1.111       .  S
C2943      H2949   1.077       .  S
C2943      C2944   1.365       .  D
C2944      C3068   1.532       .  S
C2945      H2950   1.086       .  S
C2945      C2946   1.360       .  D
C2951      C2953   1.517       .  S
C2951      C2955   1.508       .  S
C2951      C2954   1.650       .  S
C2952      C3040   1.639       .  S
C2952      C2956   1.522       .  S
C2952      C2958   1.511       .  S
C2952      C2957   1.656       .  S
C2953      C2961   1.374       .  A
C2953      C2956   1.400       .  A
C2954      C2965   1.445       .  A
C2954      C2957   1.449       .  A
C2955      C2969   1.370       .  A
C2955      C2958   1.391       .  A
C2956      C2959   1.380       .  A
C2957      C2963   1.449       .  A
C2958      C2966   1.372       .  A
C2959      N2960   1.348       .  A
C2959      H2972   1.081       .  S
N2960      C2993   1.428       .  S
N2960      C2961   1.342       .  A
C2961      H2962   1.079       .  S
C2963      N2964   1.398       .  A
C2963      H2973   1.082       .  S
N2964      C2965   1.396       .  A
C2965      H2971   1.082       .  S
C2966      N2967   1.342       .  A
C2966      H2968   1.079       .  S
N2967      C2981   1.425       .  S
N2967      C2969   1.342       .  A
C2969      H2970   1.074       .  S
C2974      C2975   1.560       .  S
C2974      C2980   1.546       .  S
C2974      C2978   1.551       .  S
C2974      C3198   1.528       .  S
C2975      H2982   1.084       .  S
C2975      C2976   1.347       .  D
C2976      C2977   1.519       .  S
C2976      N3061   1.437       .  S
C2977      C2981   1.524       .  S
C2977      C2979   1.555       .  S
C2977      H2983   1.112       .  S
C2978      H2984   1.075       .  S
C2978      C2979   1.363       .  D
C2979      C2999   1.520       .  S
C2980      H2985   1.078       .  S
C2980      C2981   1.348       .  D
C2986      C2987   1.546       .  S
C2986      C2992   1.546       .  S
C2986      C2990   1.566       .  S
C2986      C3181   1.532       .  S
C2987      H2994   1.087       .  S
C2987      C2988   1.336       .  D
C2988      C2989   1.520       .  S
C2988      N3084   1.427       .  S
C2989      C2993   1.521       .  S
C2989      C2991   1.556       .  S
C2989      H2995   1.111       .  S
C2990      H2996   1.072       .  S
C2990      C2991   1.373       .  D
C2992      H2997   1.085       .  S
C2992      C2993   1.354       .  D
C2998      C3000   1.521       .  S
C2998      C3002   1.561       .  S
C2998      C3001   1.663       .  S
C2999      C3003   1.508       .  S
C2999      C3005   1.519       .  S
C2999      C3004   1.557       .  S
C3000      C3008   1.372       .  A
C3000      C3003   1.385       .  A
C3001      C3012   1.455       .  A
C3001      C3004   1.424       .  A
C3002      C3016   1.397       .  A
C3002      C3005   1.367       .  A
C3003      C3006   1.368       .  A
C3004      C3010   1.396       .  A
C3005      C3013   1.377       .  A
C3006      N3007   1.339       .  A
C3006      H3019   1.077       .  S
N3007      C3023   1.427       .  S
N3007      C3008   1.349       .  A
C3008      H3009   1.069       .  S
C3010      N3011   1.363       .  A
C3010      H3020   1.078       .  S
N3011      C3012   1.403       .  A
C3012      H3018   1.081       .  S
C3013      N3014   1.355       .  A
C3013      H3015   1.067       .  S
N3014      C3035   1.483       .  S
N3014      C3016   1.379       .  A
C3016      H3017   1.075       .  S
C3021      C3022   1.551       .  S
C3021      C3027   1.548       .  S
C3021      C3025   1.560       .  S
C3021      C3167   1.531       .  S
C3022      H3029   1.087       .  S
C3022      C3023   1.344       .  D
C3023      C3024   1.518       .  S
C3024      C3028   1.524       .  S
C3024      C3026   1.557       .  S
C3024      H3030   1.111       .  S
C3025      H3031   1.075       .  S
C3025      C3026   1.371       .  D
C3026      C3045   1.531       .  S
C3027      H3032   1.086       .  S
C3027      C3028   1.352       .  D
C3033      C3034   1.553       .  S
C3033      C3039   1.549       .  S
C3033      C3037   1.551       .  S
C3033      C3153   1.527       .  S
C3034      H3041   1.086       .  S
C3034      C3035   1.343       .  D
C3035      C3036   1.586       .  S
C3036      C3040   1.652       .  S
C3036      C3038   1.625       .  S
C3036      H3042   1.109       .  S
C3037      H3043   1.078       .  S
C3037      C3038   1.351       .  D
C3038      C3069   1.602       .  S
C3039      H3044   1.085       .  S
C3039      C3040   1.357       .  D
C3045      C3047   1.527       .  S
C3045      C3049   1.520       .  S
C3045      C3048   1.563       .  S
C3046      C3050   1.557       .  S
C3046      C3052   1.517       .  S
C3046      C3051   1.667       .  S
C3047      C3055   1.380       .  A
C3047      C3050   1.368       .  A
C3048      C3051   1.429       .  A
C3049      C3063   1.375       .  A
C3049      C3052   1.379       .  A
C3050      C3053   1.395       .  A
C3052      C3060   1.370       .  A
C3053      N3054   1.378       .  A
C3053      H3066   1.075       .  S
N3054      C3055   1.356       .  A
C3055      H3056   1.068       .  S
C3057      N3058   1.404       .  A
C3057      H3067   1.082       .  S
N3058      C3059   1.365       .  A
N3058      N3081   1.469       .  S
C3059      H3065   1.079       .  S
C3060      N3061   1.350       .  A
C3060      H3062   1.068       .  S
N3061      C3063   1.351       .  A
C3063      H3064   1.077       .  S
C3068      C3070   1.539       .  S
C3068      C3072   1.528       .  S
C3068      C3071   1.546       .  S
C3069      C3073   1.560       .  S
C3069      C3075   1.490       .  S
C3069      C3074   1.686       .  S
C3070      C3078   1.382       .  A
C3070      C3073   1.380       .  A
C3071      C3082   1.399       .  A
C3071      C3074   1.427       .  A
C3072      C3086   1.372       .  A
C3072      C3075   1.368       .  A
C3073      C3076   1.402       .  A
C3074      C3080   1.461       .  A
C3075      C3083   1.357       .  A
C3076      N3077   1.367       .  A
C3076      H3089   1.067       .  S
N3077      C3078   1.356       .  A
C3078      H3079   1.077       .  S
C3080      N3081   1.406       .  A
C3080      H3090   1.081       .  S
N3081      C3082   1.363       .  A
C3082      H3088   1.081       .  S
C3083      N3084   1.344       .  A
C3083      H3085   1.062       .  S
N3084      C3086   1.351       .  A
C3086      H3087   1.077       .  S
O3091     Zr3103   2.368   1_554  S
O3094     Zr3106   2.464       .  S
O3094      C3096   1.287       .  A
O3095     Zr3130   2.386       .  S
O3095      C3096   1.271       .  A
O3097     Zr3106   2.412       .  S
O3098      C3099   1.288       .  A
C3099      C3170   1.471       .  S
O3101      C3102   1.281   1_556  A
Zr3103     O3105   2.435   1_556  S
Zr3103     O3133   2.366       .  S
Zr3103     O3135   2.364       .  S
O3105      H3146   0.989   1_554  S
Zr3106     O3108   2.430       .  S
Zr3106     O3110   2.345       .  S
Zr3106     O3109   2.376       .  S
Zr3106     O3134   2.373       .  S
Zr3106     O3136   2.359       .  S
O3107      H3148   0.988       .  S
O3107      H3151   0.989       .  S
O3108      H3141   0.990       .  S
O3109     Zr3129   2.383       .  S
O3110     Zr3130   2.448       .  S
O3111     Zr3123   2.447       .  S
O3111      C3113   1.283       .  A
O3112      C3113   1.274       .  A
C3113      C3184   1.492       .  S
O3114     Zr3126   2.397       .  S
O3115      C3116   1.296       .  A
C3116      C3240   1.492       .  S
O3117     Zr3126   2.420       .  S
O3117      C3119   1.263       .  A
O3118     Zr3130   2.431       .  S
O3118      C3119   1.275       .  A
C3119      C3156   1.476       .  S
O3120     Zr3123   2.408       .  S
C3122      C3212   1.447       .  S
Zr3123     O3124   2.437       .  S
Zr3123     O3125   2.430       .  S
Zr3123     O3135   2.374       .  S
Zr3123     O3133   2.362       .  S
O3124      H3144   0.990       .  S
O3124      H3149   0.990       .  S
O3125      H3145   0.990       .  S
Zr3126     O3127   2.428       .  S
Zr3126     O3128   2.435       .  S
Zr3126     O3132   2.375       .  S
Zr3126     O3131   2.351       .  S
Zr3126     O3136   2.365       .  S
Zr3126     O3134   2.361       .  S
O3127      H3143   0.990       .  S
O3128      H3142   0.990       .  S
O3128      H3152   0.989       .  S
Zr3129     O3132   2.390       .  S
Zr3129     O3134   2.393       .  S
Zr3130     O3131   2.442       .  S
Zr3130     O3136   2.424       .  S
O3131      H3139   0.964       .  S
O3134      H3138   0.966       .  S
O3135      H3140   0.966       .  S
C3153      C3154   1.404       .  A
C3153      C3158   1.411       .  A
C3154      C3155   1.402       .  A
C3154      C3159   1.449       .  S
C3155      C3156   1.416       .  A
C3155      C3162   1.447       .  S
C3156      C3157   1.420       .  A
C3157      C3158   1.401       .  A
C3157      C3160   1.454       .  S
C3158      C3161   1.451       .  S
C3159      N3166   1.157       .  T
C3160      N3165   1.158       .  T
C3161      N3163   1.157       .  T
C3162      N3164   1.157       .  T
C3167      C3168   1.430       .  A
C3168      C3169   1.391       .  A
C3168      C3173   1.458       .  S
C3169      C3176   1.458       .  S
C3170      C3171   1.410       .  A
C3171      C3172   1.420       .  A
C3171      C3174   1.451       .  S
C3172      C3175   1.448       .  S
C3173      N3180   1.158       .  T
C3174      N3179   1.157       .  T
C3175      N3177   1.158       .  T
C3176      N3178   1.157       .  T
C3181      C3182   1.405       .  A
C3181      C3186   1.426       .  A
C3182      C3183   1.411       .  A
C3182      C3187   1.448       .  S
C3183      C3184   1.427       .  A
C3184      C3185   1.410       .  A
C3185      C3186   1.399       .  A
C3185      C3188   1.453       .  S
C3186      C3189   1.455       .  S
C3187      N3194   1.158       .  T
C3188      N3193   1.157       .  T
C3189      N3191   1.158       .  T
C3190      N3192   1.158       .  T
C3195      C3196   1.411       .  A
C3195      C3200   1.430       .  A
C3196      C3197   1.397       .  A
C3196      C3201   1.449       .  S
C3197      C3198   1.413       .  A
C3197      C3204   1.448       .  S
C3198      C3199   1.411       .  A
C3199      C3200   1.411       .  A
C3199      C3202   1.449       .  S
C3200      C3203   1.452       .  S
C3202      N3207   1.158       .  T
C3203      N3205   1.158       .  T
C3204      N3206   1.158       .  T
C3209      C3210   1.429       .  A
C3209      C3214   1.422       .  A
C3210      C3211   1.391       .  A
C3210      C3215   1.458       .  S
C3211      C3212   1.398       .  A
C3211      C3218   1.456       .  S
C3212      C3213   1.405       .  A
C3213      C3214   1.411       .  A
C3213      C3216   1.453       .  S
C3214      C3217   1.448       .  S
C3215      N3222   1.158       .  T
C3216      N3221   1.158       .  T
C3217      N3219   1.158       .  T
C3223      C3224   1.417       .  A
C3224      C3225   1.410       .  A
C3224      C3229   1.455       .  S
C3225      C3226   1.427       .  A
C3225      C3232   1.452       .  S
C3226      C3227   1.447       .  A
C3228      C3231   1.444   1_554  S
C3229      N3236   1.157       .  T
C3230      N3235   1.157       .  T
C3231      N3233   1.156       .  T
C3232      N3234   1.158       .  T
C3237      C3238   1.437       .  A
C3237      C3242   1.418       .  A
C3238      C3239   1.410       .  A
C3238      C3243   1.453       .  S
C3239      C3240   1.406       .  A
C3239      C3246   1.452       .  S
C3240      C3241   1.420       .  A
C3241      C3242   1.411       .  A
C3241      C3244   1.453       .  S
C3242      C3245   1.452       .  S
C3243      N3250   1.158       .  T
C3245      N3247   1.158       .  T
C3246      N3248   1.158       .  T
C3251      C3252   1.416       .  A
C3251      C3256   1.440       .  A
C3252      C3253   1.411       .  A
C3252      C3257   1.453       .  S
C3253      C3254   1.421       .  A
C3254      C3255   1.406       .  A
C3255      C3256   1.413       .  A
C3256      C3259   1.453       .  S
C3257      N3264   1.158       .  T
C3258      N3263   1.158   1_554  T
C3259      N3261   1.158       .  T
C3260      N3262   1.157   1_455  T
