geometry optimzed in LAMMPS
_audit_creation_date              2020-11-30 
_audit_creation_method            'lammps2cif' 
_symmetry_space_group_name_H-M    'P1' 
_symmetry_Int_Tables_number       1 
_symmetry_cell_setting            triclinic 
loop_ 
_symmetry_equiv_pos_as_xyz 
  x,y,z 
_cell_length_a                    42.13475246003559 
_cell_length_b                    42.14245152301755 
_cell_length_c                    44.16381865480308 
_cell_angle_alpha                 89.56821179232746 
_cell_angle_beta                  90.15174112789133 
_cell_angle_gamma                 90.1294151837492 
loop_ 
_atom_site_label 
_atom_site_type_symbol 
_atom_site_fract_x 
_atom_site_fract_y 
_atom_site_fract_z 
_atom_site_charge 
N1          N  0.68134860  0.56777790  0.24911729    -0.27130
N2          N  0.65715708  0.54800747  0.24997232    -0.34990
C3          C  0.63000696  0.56404598  0.25040467     0.01210
C4          C  0.63675999  0.59605850  0.24977518     0.07230
C5          C  0.66984109  0.59784263  0.24896985    -0.05870
H6          H  0.60693237  0.55278886  0.25102050     0.07900
H7          H  0.68424036  0.61912431  0.24827551     0.09100
Cu8        Cu  0.66089470  0.49997559  0.25019557     0.44170
Cu9        Cu  0.72642048  0.54717607  0.24837100     0.41990
Cu10       Cu  0.72639183  0.45316457  0.25103933     0.43880
N11         N  0.65716169  0.45192949  0.25011818    -0.34520
N12         N  0.68135721  0.43226121  0.25047620    -0.28770
C13         C  0.66984046  0.40214291  0.25038661    -0.04870
C14         C  0.63674319  0.40379173  0.24996838     0.07340
C15         C  0.63000602  0.43578378  0.24979330     0.01140
H16         H  0.68424284  0.38091801  0.25067035     0.08790
H17         H  0.60693808  0.44696462  0.24948908     0.07870
N18         N  0.76519088  0.48449575  0.25084206    -0.35970
N19         N  0.76523632  0.51605065  0.24923795    -0.28150
C20         C  0.79550636  0.52628354  0.24883357    -0.03390
C21         C  0.81542417  0.50033362  0.25063722     0.05220
C22         C  0.79541379  0.47432909  0.25182624     0.03310
H23         H  0.80248057  0.55099182  0.24772349     0.08420
H24         H  0.80224673  0.44960612  0.25270978     0.07250
N25         N  0.44791701  0.66547257  0.25069257    -0.27130
N26         N  0.46748468  0.64119271  0.25024577    -0.34990
C27         C  0.45118944  0.61412488  0.24996525     0.01210
C28         C  0.41922796  0.62101774  0.25027681     0.07230
C29         C  0.41774315  0.65409972  0.25074279    -0.05870
H30         H  0.46224640  0.59100673  0.24962214     0.07900
H31         H  0.39658571  0.66859627  0.25107467     0.09100
Cu32       Cu  0.51561486  0.64455200  0.25015618     0.44170
Cu33       Cu  0.46877445  0.71051607  0.25100727     0.41990
Cu34       Cu  0.56260162  0.71010118  0.24830306     0.43880
N35         N  0.56371215  0.64088113  0.24991531    -0.34520
N36         N  0.58337220  0.66516016  0.24903692    -0.28770
C37         C  0.61349930  0.65382684  0.24890471    -0.04870
C38         C  0.61190067  0.62074834  0.24975389     0.07340
C39         C  0.57990968  0.61381381  0.25038923     0.01140
H40         H  0.63469900  0.66834701  0.24820452     0.08790
H41         H  0.56878485  0.59067759  0.25104740     0.07870
N42         N  0.53172542  0.74902405  0.24918360    -0.35970
N43         N  0.50019675  0.74922926  0.25042600    -0.28150
C44         C  0.49030836  0.77953749  0.25105260    -0.03390
C45         C  0.51649498  0.79946528  0.25021566     0.05220
C46         C  0.54224782  0.77916101  0.24888602     0.03310
H47         H  0.46563755  0.78644550  0.25229220     0.08420
H48         H  0.56704819  0.78553188  0.24727262     0.07250
N49         N  0.44761032  0.33498227  0.25050760    -0.27130
N50         N  0.46725415  0.35928411  0.25000364    -0.34990
C51         C  0.45102238  0.38633541  0.24965186     0.01210
C52         C  0.41902631  0.37936304  0.24994826     0.07230
C53         C  0.41746627  0.34627820  0.25047800    -0.05870
H54         H  0.46212445  0.40948674  0.24923849     0.07900
H55         H  0.39627968  0.33172707  0.25086196     0.09100
Cu56       Cu  0.51537964  0.35562201  0.24991490     0.44170
Cu57       Cu  0.46842599  0.29006632  0.25111549     0.41990
Cu58       Cu  0.56223684  0.28954529  0.24915225     0.43880
N59         N  0.56354022  0.35889580  0.24985513    -0.34520
N60         N  0.58309335  0.33459718  0.24953480    -0.28770
C61         C  0.61327918  0.34594691  0.24956796    -0.04870
C62         C  0.61182452  0.37903436  0.24990601     0.07340
C63         C  0.57986275  0.38594976  0.25008927     0.01140
H64         H  0.63442557  0.33143096  0.24932737     0.08790
H65         H  0.56882236  0.40907670  0.25037001     0.07870
N66         N  0.53077831  0.25085268  0.24957818    -0.35970
N67         N  0.49927141  0.25111515  0.25065828    -0.28150
C68         C  0.48868963  0.22101512  0.25106402    -0.03390
C69         C  0.51439159  0.20050543  0.24996851     0.05220
C70         C  0.54060104  0.22053088  0.24908895     0.03310
H71         H  0.46381138  0.21505009  0.25235000     0.08420
H72         H  0.56531339  0.21380095  0.24803502     0.07250
N73         N  0.34950043  0.43230266  0.24963541    -0.27130
N74         N  0.37370956  0.45207143  0.24968613    -0.34990
C75         C  0.40087085  0.43604157  0.24982989     0.01210
C76         C  0.39412904  0.40402910  0.24985769     0.07230
C77         C  0.36102653  0.40223776  0.24974052    -0.05870
H78         H  0.42394784  0.44730973  0.24992429     0.07900
H79         H  0.34662571  0.38094878  0.24972616     0.09100
Cu80       Cu  0.37005562  0.50010031  0.24960672     0.44170
Cu81       Cu  0.30437657  0.45292455  0.24952189     0.41990
Cu82       Cu  0.30471587  0.54689625  0.25150237     0.43880
N83         N  0.37389521  0.54813036  0.24990505    -0.34520
N84         N  0.34972424  0.56779280  0.25078691    -0.28770
C85         C  0.36124637  0.59790204  0.25097983    -0.04870
C86         C  0.39432633  0.59625636  0.25018188     0.07340
C87         C  0.40105300  0.56427492  0.24950267     0.01140
H88         H  0.34685969  0.61911532  0.25171630     0.08790
H89         H  0.42411244  0.55310337  0.24885808     0.07870
N90         N  0.26581750  0.51574361  0.25073096    -0.35970
N91         N  0.26562381  0.48420084  0.24983457    -0.28150
C92         C  0.23529841  0.47415598  0.24924880    -0.03390
C93         C  0.21537036  0.50024386  0.24970943     0.05220
C94         C  0.23566363  0.52610663  0.25080042     0.03310
H95         H  0.22835856  0.44945697  0.24826896     0.08420
H96         H  0.22924687  0.55087610  0.25210323     0.07250
O97         O  0.98864010  0.54683219  0.49938507    -0.72790
O98         O  0.98910610  0.45156561  0.50076836    -0.73770
O99         O  0.98927553  0.49925045  0.04537535    -0.62390
O100        O  0.98847722  0.49874215  0.45451283    -0.70800
O101        O  0.04119830  0.50072152  0.45417124    -0.70350
O102        O  0.04189998  0.49898257  0.04499482    -0.61600
O103        O  0.04175997  0.45208056  0.49874909    -0.74110
O104        O  0.04121557  0.54724955  0.50005162    -0.72890
Cu105      Cu  0.98702542  0.49910248  0.50000354     1.04560
Cu106      Cu  0.04335196  0.49974815  0.49950294     1.04330
C107        C  0.01484571  0.56218231  0.49970427     0.93410
C108        C  0.01552827  0.43682561  0.49970262     0.92550
C109        C  0.01573749  0.49909805  0.05957974     0.84700
C110        C  0.01471274  0.49981291  0.44012300     0.90970
O111        O  0.96715767  0.47398211  0.25083908    -0.72790
O112        O  0.06237508  0.47320753  0.24998410    -0.73770
O113        O  0.01514806  0.47404827  0.29561270    -0.62390
O114        O  0.01390018  0.47316114  0.20477219    -0.70800
O115        O  0.01645383  0.52583707  0.20381595    -0.70350
O116        O  0.01472782  0.52661222  0.29464012    -0.61600
O117        O  0.06297033  0.52581513  0.24987804    -0.74110
O118        O  0.96777332  0.52659240  0.24810814    -0.72890
Cu119      Cu  0.01465082  0.47176068  0.25030357     1.04560
Cu120      Cu  0.01547610  0.52805261  0.24910829     1.04330
C121        C  0.95243816  0.50041537  0.24940637     0.93410
C122        C  0.07777188  0.49938228  0.24999650     0.92550
C123        C  0.01489584  0.50050009  0.30956666     0.84700
C124        C  0.01521300  0.49934125  0.19005336     0.90970
O125        O  0.56344287  0.02554434  0.50060185    -0.72790
O126        O  0.46827252  0.02663740  0.49859962    -0.73770
O127        O  0.51516001  0.02587813  0.04512123    -0.62390
O128        O  0.51703987  0.02624868  0.45420953    -0.70800
O129        O  0.51380366  0.97362353  0.45448268    -0.70350
O130        O  0.51590840  0.97332014  0.04525891    -0.61600
O131        O  0.46750027  0.97404842  0.50077078    -0.74110
O132        O  0.56275830  0.97299928  0.49903234    -0.72890
Cu133      Cu  0.51598181  0.02791670  0.49963056     1.04560
Cu134      Cu  0.51499761  0.97166478  0.49988784     1.04330
C135        C  0.57822274  0.99912272  0.49981283     0.93410
C136        C  0.45280761  0.00052340  0.49964104     0.92550
C137        C  0.51550536  0.99951025  0.05963614     0.84700
C138        C  0.51536943  0.99996541  0.44007801     0.90970
O139        O  0.54199712  0.95224107  0.25031086    -0.72790
O140        O  0.54224483  0.04745177  0.24957007    -0.73770
O141        O  0.54227717  0.00016292  0.29529684    -0.62390
O142        O  0.54208961  0.99999631  0.20445530    -0.70800
O143        O  0.48933704  0.99997720  0.20439278    -0.70350
O144        O  0.48963316  0.99901121  0.29525778    -0.61600
O145        O  0.48966942  0.04725110  0.24989646    -0.74110
O146        O  0.48939079  0.95211420  0.24957944    -0.72890
Cu147      Cu  0.54399119  0.99992936  0.24990220     1.04560
Cu148      Cu  0.48767306  0.99960932  0.24979272     1.04330
C149        C  0.51567510  0.93707414  0.24989257     0.93410
C150        C  0.51595549  0.06248603  0.24974012     0.92550
C151        C  0.51598765  0.99966222  0.30963903     0.84700
C152        C  0.51568778  0.00003426  0.19020248     0.90970
N153        N  0.08327132  0.83491678  0.49904720    -0.27130
N154        N  0.06358209  0.85907065  0.49985649    -0.34990
C155        C  0.07972858  0.88622997  0.50032012     0.01210
C156        C  0.11172632  0.87950667  0.49975798     0.07230
C157        C  0.11338293  0.84644182  0.49896640    -0.05870
H158        H  0.06856018  0.90928622  0.50093844     0.07900
H159        H  0.13461052  0.83206354  0.49831841     0.09100
Cu160      Cu  0.01551181  0.85514178  0.50004379     0.44170
Cu161      Cu  0.06246635  0.78988194  0.49826580     0.41990
Cu162      Cu  0.96857269  0.78915550  0.50122731     0.43880
N163        N  0.96741700  0.85851100  0.50017111    -0.34520
N164        N  0.94773238  0.83421863  0.00074575    -0.28770
C165        C  0.91760780  0.84562803  0.00082919    -0.04870
C166        C  0.91924443  0.87874069  0.00027144     0.07340
C167        C  0.95125607  0.88559327  0.49985259     0.01140
H168        H  0.89637820  0.83114190  0.00129529     0.08790
H169        H  0.96243529  0.90870659  0.49942394     0.07870
N170        N  0.99999475  0.75049159  0.50053189    -0.35970
N171        N  0.03149652  0.75083705  0.49902131    -0.28150
C172        C  0.04199300  0.72075295  0.49845102    -0.03390
C173        C  0.01626263  0.70019658  0.49994145     0.05220
C174        C  0.99011370  0.72012174  0.50116825     0.03310
H175        H  0.06681079  0.71475778  0.49665411     0.08420
H176        H  0.96542489  0.71323909  0.50259469     0.07250
N177        N  0.18143696  0.06841149  0.49972504    -0.27130
N178        N  0.15714634  0.04873915  0.50004818    -0.34990
C179        C  0.13006375  0.06490415  0.50012598     0.01210
C180        C  0.13695054  0.09689813  0.49983714     0.07230
C181        C  0.17005305  0.09853090  0.49958028    -0.05870
H182        H  0.10693752  0.05373890  0.50031460     0.07900
H183        H  0.18455313  0.11975185  0.49930297     0.09100
Cu184      Cu  0.16057193  0.00064742  0.50020382     0.44170
Cu185      Cu  0.22649366  0.04769151  0.49952633     0.41990
Cu186      Cu  0.22608419  0.95378977  0.49939401     0.43880
N187        N  0.15682581  0.95256594  0.49999425    -0.34520
N188        N  0.18105374  0.93294252  0.49959066    -0.28770
C189        C  0.16961124  0.90280662  0.49944179    -0.04870
C190        C  0.13652366  0.90437237  0.49978569     0.07340
C191        C  0.12969969  0.93634580  0.50012796     0.01140
H192        H  0.18406353  0.88162205  0.49911597     0.08790
H193        H  0.10659583  0.94744817  0.50040297     0.07870
N194        N  0.26503600  0.98486882  0.49982609    -0.35970
N195        N  0.26524298  0.01644018  0.49973218    -0.28150
C196        C  0.29557118  0.02650162  0.49995675    -0.03390
C197        C  0.31542767  0.00039180  0.50041735     0.05220
C198        C  0.29519057  0.97449469  0.50020457     0.03310
H199        H  0.30259653  0.05120852  0.50010679     0.08420
H200        H  0.30173082  0.94970339  0.49975812     0.07250
N201        N  0.94814631  0.16578684  0.50066597    -0.27130
N202        N  0.96783637  0.14162205  0.50002053    -0.34990
C203        C  0.95169371  0.11446299  0.49954480     0.01210
C204        C  0.91969434  0.12117529  0.49991646     0.07230
C205        C  0.91803179  0.15425108  0.50059806    -0.05870
H206        H  0.96287076  0.09140855  0.49901460     0.07900
H207        H  0.89679719  0.16862655  0.50112739     0.09100
Cu208      Cu  0.01591788  0.14541919  0.50000362     0.44170
Cu209      Cu  0.96895001  0.21085551  0.50157781     0.41990
Cu210      Cu  0.06287839  0.21116350  0.49798091     0.43880
N211        N  0.06400566  0.14189554  0.49981605    -0.34520
N212        N  0.08367930  0.16616610  0.49891030    -0.28770
C213        C  0.11380021  0.15477885  0.49886704    -0.04870
C214        C  0.11216466  0.12168746  0.49977214     0.07340
C215        C  0.08016702  0.11481410  0.50036875     0.01140
H216        H  0.13502158  0.16926648  0.49815634     0.08790
H217        H  0.06899826  0.09170087  0.50107061     0.07870
N218        N  0.03166800  0.24989953  0.49903551    -0.35970
N219        N  0.00015893  0.24975651  0.50122301    -0.28150
C220        C  0.98995581  0.27994114  0.50247862    -0.03390
C221        C  0.01587377  0.29999039  0.50074210     0.05220
C222        C  0.04181284  0.28019720  0.49839310     0.03310
H223        H  0.96526155  0.28676316  0.50391499     0.08420
H224        H  0.06645945  0.28728243  0.49680234     0.07250
N225        N  0.85004548  0.93216072  0.00067998    -0.27130
N226        N  0.87435878  0.95180461  0.00019337    -0.34990
C227        C  0.90141438  0.93558441  0.99992603     0.01210
C228        C  0.89448535  0.90358632  0.00028416     0.07230
C229        C  0.86138165  0.90201967  0.00076012    -0.05870
H230        H  0.92455568  0.94671237  0.99955859     0.07900
H231        H  0.84684552  0.88082439  0.00114465     0.09100
Cu232      Cu  0.87094834  0.99994580  0.00005839     0.44170
Cu233      Cu  0.80500457  0.95292392  0.00102920     0.41990
Cu234      Cu  0.80547853  0.04688819  0.99840797     0.43880
N235        N  0.87467556  0.04804923  0.99990963    -0.34520
N236        N  0.85053751  0.06778691  0.99918163    -0.28770
C237        C  0.86183614  0.09778416  0.49917416    -0.04870
C238        C  0.89492299  0.09627061  0.49989369     0.07340
C239        C  0.90179234  0.06429583  0.50035869     0.01140
H240        H  0.84735204  0.11895001  0.49859838     0.08790
H241        H  0.92491105  0.05322670  0.50095514     0.07870
N242        N  0.76648834  0.01574966  0.99915937    -0.35970
N243        N  0.76627436  0.98420802  0.00041144    -0.28150
C244        C  0.73594911  0.97416575  0.00100933    -0.03390
C245        C  0.71598942  0.00024749  0.00013322     0.05220
C246        C  0.73632857  0.02611128  0.99880635     0.03310
H247        H  0.72905124  0.94945481  0.00226746     0.08420
H248        H  0.72997778  0.05089393  0.99718562     0.07250
C249        C  0.63004117  0.02655479  0.00826929    -0.21150
C250        C  0.61340586  0.99903623  0.49993276    -0.09190
C251        C  0.63076558  0.97191261  0.49182569     0.29670
C252        C  0.66395802  0.97258380  0.49191925    -0.21150
C253        C  0.68066936  0.00014910  0.00022910    -0.09200
C254        C  0.66319639  0.02716129  0.00864368     0.29670
F255        F  0.67784758  0.05399616  0.01813485    -0.19730
H256        H  0.61734300  0.04768371  0.01497710     0.18040
H257        H  0.67653270  0.95146970  0.48506583     0.18040
F258        F  0.61579892  0.94486502  0.48324756    -0.19720
C259        C  0.40105974  0.97512914  0.01261425    -0.21150
C260        C  0.41771240  0.00077669  0.49977769    -0.09190
C261        C  0.40052456  0.02632933  0.48731355     0.29670
C262        C  0.36733621  0.02603721  0.48770242    -0.21150
C263        C  0.35061997  0.00036154  0.50049681    -0.09200
C264        C  0.36791240  0.97491327  0.01319836     0.29670
F265        F  0.35293380  0.95030329  0.02710231    -0.19730
H266        H  0.41375110  0.95537150  0.02272524     0.18040
H267        H  0.35471375  0.04577073  0.47750276     0.18040
F268        F  0.41570161  0.05120643  0.47401359    -0.19720
C269        C  0.53971585  0.01550621  0.39098924    -0.21070
C270        C  0.51535738  0.00000623  0.40683514    -0.09190
C271        C  0.49119896  0.98450511  0.39072178     0.29670
C272        C  0.49131637  0.98482983  0.35906407    -0.21150
C273        C  0.51599907  0.99983738  0.34307438    -0.09200
C274        C  0.54037705  0.01506487  0.35934272     0.29670
F275        F  0.56444476  0.03010631  0.34469873    -0.19730
H276        H  0.55851727  0.02752371  0.40318898     0.18040
H277        H  0.47232212  0.97295140  0.34702406     0.18040
F278        F  0.46712634  0.96974032  0.40561584    -0.19720
C279        C  0.51989082  0.02795408  0.10905149    -0.21150
C280        C  0.51548169  0.99938850  0.09323373    -0.09190
C281        C  0.51106521  0.97102865  0.10992721     0.29670
C282        C  0.51099693  0.97148819  0.14157771    -0.21150
C283        C  0.51561587  0.99997934  0.15705194    -0.09200
C284        C  0.52009792  0.02824439  0.14070986     0.29670
F285        F  0.52440178  0.05611147  0.15540492    -0.19730
H286        H  0.52336587  0.05012304  0.09693187     0.18040
H287        H  0.50748158  0.94953487  0.15407437     0.18040
F288        F  0.50653374  0.94286707  0.09582598    -0.19720
C289        C  0.99481166  0.38506353  0.01873992    -0.21150
C290        C  0.01569199  0.40188812  0.49979617    -0.09190
C291        C  0.03664506  0.38503566  0.48119014     0.29670
C292        C  0.03674852  0.35185385  0.48177620    -0.21150
C293        C  0.01584910  0.33502575  0.50073681    -0.09200
C294        C  0.99496433  0.35188636  0.01938900     0.29670
F295        F  0.97549652  0.33642546  0.03902148    -0.19730
H296        H  0.97875398  0.39769337  0.03348750     0.18040
H297        H  0.05277838  0.33926757  0.46698037     0.18040
F298        F  0.05620782  0.40062850  0.46172381    -0.19720
C299        C  0.98761379  0.64812110  0.49548389    -0.21150
C300        C  0.01623803  0.66477289  0.49994511    -0.09190
C301        C  0.04428452  0.64707242  0.00448062     0.29670
C302        C  0.04350598  0.61392443  0.00419093    -0.21150
C303        C  0.01489839  0.59740637  0.49975516    -0.09200
C304        C  0.98682387  0.61494073  0.49549612     0.29670
F305        F  0.95854055  0.60019123  0.49104030    -0.19730
H306        H  0.96557198  0.66065348  0.49170421     0.18040
H307        H  0.06549484  0.60115011  0.00780556     0.18040
F308        F  0.07255425  0.66136123  0.00989168    -0.19720
C309        C  0.01037222  0.47209847  0.35933950    -0.21150
C310        C  0.01474116  0.50069433  0.34315745    -0.09190
C311        C  0.01901025  0.52905031  0.35948474     0.29670
C312        C  0.01904538  0.52854768  0.39114954    -0.21150
C313        C  0.01448432  0.50001685  0.40697614    -0.09200
C314        C  0.01011890  0.47176095  0.39098730     0.29670
F315        F  0.00603853  0.44383075  0.40601777    -0.19730
H316        H  0.00703174  0.44991318  0.34751271     0.18040
H317        H  0.02252238  0.55048641  0.40337899     0.18040
F318        F  0.02346697  0.55722821  0.34501458    -0.19720
C319        C  0.98930670  0.48782457  0.10908392    -0.21150
C320        C  0.01594429  0.49903006  0.09308291    -0.09190
C321        C  0.04236317  0.51032384  0.10944481     0.29670
C322        C  0.04181515  0.51065082  0.14109789    -0.21150
C323        C  0.01537839  0.49903708  0.15686286    -0.09200
C324        C  0.98912706  0.48750697  0.14074041     0.29670
F325        F  0.96306563  0.47668947  0.15563299    -0.19730
H326        H  0.96868220  0.47901418  0.09707066     0.18040
H327        H  0.06218755  0.51967871  0.15337125     0.18040
F328        F  0.06843459  0.52166883  0.09493726    -0.19720
C329        C  0.16341922  0.47303551  0.25926646    -0.21150
C330        C  0.18009974  0.50019350  0.24956322    -0.09190
C331        C  0.16268013  0.52690022  0.23978575     0.29670
C332        C  0.12952468  0.52641801  0.24021972    -0.21150
C333        C  0.11291258  0.49929259  0.24994463    -0.09200
C334        C  0.13023073  0.47247184  0.25941956     0.29670
F335        F  0.11520284  0.44591256  0.26949795    -0.19730
H336        H  0.17602702  0.45220992  0.26719446     0.18040
H337        H  0.11679701  0.54725375  0.23241803     0.18040
F338        F  0.17741644  0.55322736  0.22887403    -0.19720
C339        C  0.54325296  0.14847735  0.25254309    -0.21150
C340        C  0.51438307  0.16505784  0.24988372    -0.09190
C341        C  0.48610814  0.14723617  0.24706592     0.29670
C342        C  0.48695542  0.11409311  0.24714848    -0.21150
C343        C  0.51580038  0.09769190  0.24976442    -0.09200
C344        C  0.54407497  0.11532501  0.25239193     0.29670
F345        F  0.57263622  0.10070580  0.25504319    -0.19730
H346        H  0.56552789  0.16099839  0.25493203     0.18040
H347        H  0.46478797  0.10123593  0.24491537     0.18040
F348        F  0.45744986  0.16135467  0.24375748    -0.19720
C349        C  0.48912163  0.85140387  0.24152935    -0.21150
C350        C  0.51657767  0.83473750  0.25024985    -0.09190
C351        C  0.54364408  0.85218236  0.25898173     0.29670
C352        C  0.54316487  0.88534195  0.25855579    -0.21150
C353        C  0.51570809  0.90192750  0.24987572    -0.09200
C354        C  0.48856203  0.88456314  0.24139132     0.29670
F355        F  0.46159141  0.89950439  0.23238759    -0.19730
H356        H  0.46799851  0.83882646  0.23439218     0.18040
H357        H  0.56428074  0.89807626  0.26554355     0.18040
F358        F  0.57036642  0.83747988  0.26886324    -0.19720
C359        C  0.90089803  0.47770289  0.26657838    -0.21150
C360        C  0.91744388  0.50059476  0.24957317    -0.09190
C361        C  0.90027177  0.52346138  0.23302268     0.29670
C362        C  0.86708787  0.52335631  0.23363434    -0.21150
C363        C  0.85051118  0.50042136  0.25061494    -0.09200
C364        C  0.86774415  0.47767051  0.26730216     0.29670
F365        F  0.85265488  0.45608136  0.28513955    -0.19730
H366        H  0.91370815  0.46013310  0.27979966     0.18040
H367        H  0.85431698  0.54089631  0.22035937     0.18040
F368        F  0.91551423  0.54523280  0.21549252    -0.19720
N369        N  0.68134856  0.56777791  0.74911730    -0.27130
N370        N  0.65715704  0.54800749  0.74997237    -0.34990
C371        C  0.63000692  0.56404599  0.75040473     0.01210
C372        C  0.63675996  0.59605851  0.74977520     0.07230
C373        C  0.66984106  0.59784265  0.74896984    -0.05870
H374        H  0.60693234  0.55278888  0.75102059     0.07900
H375        H  0.68424033  0.61912433  0.74827545     0.09100
Cu376      Cu  0.66089464  0.49997560  0.75019563     0.44170
Cu377      Cu  0.72642044  0.54717610  0.74837093     0.41990
Cu378      Cu  0.72639168  0.45316458  0.75103926     0.43880
N379        N  0.65716159  0.45192950  0.75011823    -0.34520
N380        N  0.68135711  0.43226121  0.75047621    -0.28770
C381        C  0.66984037  0.40214292  0.75038661    -0.04870
C382        C  0.63674311  0.40379174  0.74996842     0.07340
C383        C  0.63000593  0.43578378  0.74979337     0.01140
H384        H  0.68424276  0.38091803  0.75067030     0.08790
H385        H  0.60693798  0.44696462  0.74948918     0.07870
N386        N  0.76519071  0.48449572  0.75084188    -0.35970
N387        N  0.76523622  0.51605063  0.74923778    -0.28150
C388        C  0.79550628  0.52628345  0.74883344    -0.03390
C389        C  0.81542401  0.50033348  0.75063711     0.05220
C390        C  0.79541359  0.47432900  0.75182609     0.03310
H391        H  0.80248055  0.55099171  0.74772345     0.08420
H392        H  0.80224647  0.44960601  0.75270971     0.07250
N393        N  0.44791699  0.66547257  0.75069256    -0.27130
N394        N  0.46748464  0.64119271  0.75024569    -0.34990
C395        C  0.45118940  0.61412488  0.74996517     0.01210
C396        C  0.41922792  0.62101774  0.75027679     0.07230
C397        C  0.41774313  0.65409972  0.75074281    -0.05870
H398        H  0.46224635  0.59100672  0.74962202     0.07900
H399        H  0.39658569  0.66859628  0.75107476     0.09100
Cu400      Cu  0.51561483  0.64455200  0.75015606     0.44170
Cu401      Cu  0.46877445  0.71051607  0.75100731     0.41990
Cu402      Cu  0.56260162  0.71010119  0.74830310     0.43880
N403        N  0.56371212  0.64088114  0.74991523    -0.34520
N404        N  0.58337218  0.66516017  0.74903691    -0.28770
C405        C  0.61349927  0.65382685  0.74890474    -0.04870
C406        C  0.61190064  0.62074835  0.74975387     0.07340
C407        C  0.57990965  0.61381382  0.75038914     0.01140
H408        H  0.63469898  0.66834702  0.74820461     0.08790
H409        H  0.56878482  0.59067760  0.75104727     0.07870
N410        N  0.53172542  0.74902406  0.74918365    -0.35970
N411        N  0.50019676  0.74922926  0.75042605    -0.28150
C412        C  0.49030837  0.77953750  0.75105265    -0.03390
C413        C  0.51649499  0.79946529  0.75021571     0.05220
C414        C  0.54224783  0.77916101  0.74888607     0.03310
H415        H  0.46563756  0.78644551  0.75229224     0.08420
H416        H  0.56704820  0.78553188  0.74727267     0.07250
N417        N  0.44761028  0.33498228  0.75050757    -0.27130
N418        N  0.46725410  0.35928412  0.75000358    -0.34990
C419        C  0.45102233  0.38633542  0.74965180     0.01210
C420        C  0.41902625  0.37936305  0.74994821     0.07230
C421        C  0.41746623  0.34627820  0.75047797    -0.05870
H422        H  0.46212440  0.40948676  0.74923842     0.07900
H423        H  0.39627964  0.33172707  0.75086195     0.09100
Cu424      Cu  0.51537959  0.35562201  0.74991485     0.44170
Cu425      Cu  0.46842597  0.29006633  0.75111549     0.41990
Cu426      Cu  0.56223682  0.28954528  0.74915227     0.43880
N427        N  0.56354017  0.35889579  0.74985511    -0.34520
N428        N  0.58309330  0.33459718  0.74953480    -0.28770
C429        C  0.61327913  0.34594692  0.74956798    -0.04870
C430        C  0.61182445  0.37903436  0.74990602     0.07340
C431        C  0.57986268  0.38594975  0.75008926     0.01140
H432        H  0.63442553  0.33143098  0.74932743     0.08790
H433        H  0.56882228  0.40907669  0.75036997     0.07870
N434        N  0.53077830  0.25085269  0.74957820    -0.35970
N435        N  0.49927140  0.25111516  0.75065829    -0.28150
C436        C  0.48868961  0.22101513  0.75106403    -0.03390
C437        C  0.51439158  0.20050544  0.74996853     0.05220
C438        C  0.54060103  0.22053089  0.74908897     0.03310
H439        H  0.46381136  0.21505010  0.75235000     0.08420
H440        H  0.56531338  0.21380095  0.74803505     0.07250
N441        N  0.34950035  0.43230267  0.74963540    -0.27130
N442        N  0.37370949  0.45207143  0.74968613    -0.34990
C443        C  0.40087078  0.43604157  0.74982988     0.01210
C444        C  0.39412897  0.40402911  0.74985765     0.07230
C445        C  0.36102647  0.40223776  0.74974049    -0.05870
H446        H  0.42394777  0.44730973  0.74992428     0.07900
H447        H  0.34662565  0.38094879  0.74972613     0.09100
Cu448      Cu  0.37005556  0.50010031  0.74960677     0.44170
Cu449      Cu  0.30437648  0.45292456  0.74952193     0.41990
Cu450      Cu  0.30471578  0.54689625  0.75150240     0.43880
N451        N  0.37389515  0.54813037  0.74990508    -0.34520
N452        N  0.34972417  0.56779280  0.75078693    -0.28770
C453        C  0.36124632  0.59790204  0.75097983    -0.04870
C454        C  0.39432628  0.59625636  0.75018189     0.07340
C455        C  0.40105294  0.56427492  0.74950270     0.01140
H456        H  0.34685964  0.61911533  0.75171628     0.08790
H457        H  0.42411238  0.55310337  0.74885813     0.07870
N458        N  0.26581736  0.51574361  0.75073110    -0.35970
N459        N  0.26562368  0.48420084  0.74983473    -0.28150
C460        C  0.23529827  0.47415598  0.74924896    -0.03390
C461        C  0.21537021  0.50024386  0.74970957     0.05220
C462        C  0.23566349  0.52610664  0.75080055     0.03310
H463        H  0.22835842  0.44945698  0.74826906     0.08420
H464        H  0.22924673  0.55087611  0.75210327     0.07250
O465        O  0.98865338  0.54682715  0.99938453    -0.72790
O466        O  0.98912038  0.45155521  0.00076986    -0.73770
O467        O  0.98926172  0.49925407  0.54537590    -0.62390
O468        O  0.98849225  0.49873771  0.95451292    -0.70800
O469        O  0.04121320  0.50071887  0.95417151    -0.70350
O470        O  0.04188619  0.49898494  0.54499395    -0.61600
O471        O  0.04177305  0.45207032  0.99875046    -0.74110
O472        O  0.04122877  0.54724735  0.00005199    -0.72890
Cu473      Cu  0.98703997  0.49909703  0.00000350     1.04560
Cu474      Cu  0.04336600  0.49974419  0.99950360     1.04330
C475        C  0.01485802  0.56217881  0.99970412     0.93410
C476        C  0.01554165  0.43681186  0.99970557     0.92550
C477        C  0.01572415  0.49910053  0.55957959     0.84700
C478        C  0.01472771  0.49981009  0.94012314     0.90970
O479        O  0.96715740  0.47398193  0.75084049    -0.72790
O480        O  0.06237483  0.47320722  0.74998240    -0.73770
O481        O  0.01514987  0.47404782  0.79561248    -0.62390
O482        O  0.01389774  0.47316100  0.70477206    -0.70800
O483        O  0.01645137  0.52583693  0.70381604    -0.70350
O484        O  0.01472985  0.52661179  0.79464036    -0.61600
O485        O  0.06297014  0.52581482  0.74987652    -0.74110
O486        O  0.96777313  0.52659224  0.74810992    -0.72890
Cu487      Cu  0.01465052  0.47176041  0.75030341     1.04560
Cu488      Cu  0.01547589  0.52805235  0.74910844     1.04330
C489        C  0.95243794  0.50041523  0.74940804     0.93410
C490        C  0.07777166  0.49938195  0.74999480     0.92550
C491        C  0.01489897  0.50049952  0.80956668     0.84700
C492        C  0.01520942  0.49934122  0.69005333     0.90970
O493        O  0.56344044  0.02554472  0.00060197    -0.72790
O494        O  0.46827207  0.02663601  0.99859965    -0.73770
O495        O  0.51516509  0.02587875  0.54512118    -0.62390
O496        O  0.51703477  0.02624810  0.95420963    -0.70800
O497        O  0.51380056  0.97362281  0.95448267    -0.70350
O498        O  0.51591150  0.97332076  0.54525883    -0.61600
O499        O  0.46750342  0.97404611  0.00077021    -0.74110
O500        O  0.56275764  0.97299997  0.99903223    -0.72890
Cu501      Cu  0.51597793  0.02791616  0.99963064     1.04560
Cu502      Cu  0.51499604  0.97166401  0.99988777     1.04330
C503        C  0.57822220  0.99912367  0.99981274     0.93410
C504        C  0.45281162  0.00052057  0.99964070     0.92550
C505        C  0.51550949  0.99951084  0.55963608     0.84700
C506        C  0.51536517  0.99996481  0.94007806     0.90970
O507        O  0.54199711  0.95224109  0.75031105    -0.72790
O508        O  0.54224480  0.04745178  0.74957028    -0.73770
O509        O  0.54227695  0.00016292  0.79529717    -0.62390
O510        O  0.54208968  0.99999635  0.70445546    -0.70800
O511        O  0.48933711  0.99997720  0.70439261    -0.70350
O512        O  0.48963293  0.99901117  0.79525755    -0.61600
O513        O  0.48966939  0.04725111  0.74989630    -0.74110
O514        O  0.48939078  0.95211420  0.74957928    -0.72890
Cu515      Cu  0.54399115  0.99992939  0.74990242     1.04560
Cu516      Cu  0.48767303  0.99960932  0.74979254     1.04330
C517        C  0.51567509  0.93707415  0.74989259     0.93410
C518        C  0.51595546  0.06248604  0.74974014     0.92550
C519        C  0.51598725  0.99966209  0.80963908     0.84700
C520        C  0.51568794  0.00003431  0.69020246     0.90970
N521        N  0.08325197  0.83490825  0.99904659    -0.27130
N522        N  0.06356398  0.85906303  0.99985643    -0.34990
C523        C  0.07971214  0.88622070  0.00032036     0.01210
C524        C  0.11170806  0.87949121  0.99975785     0.07230
C525        C  0.11336370  0.84642880  0.99896577    -0.05870
H526        H  0.06854651  0.90927868  0.00093914     0.07900
H527        H  0.13459022  0.83204906  0.99831736     0.09100
Cu528      Cu  0.01549526  0.85513455  0.00004396     0.44170
Cu529      Cu  0.06245171  0.78987766  0.99826467     0.41990
Cu530      Cu  0.96855687  0.78915024  0.00122723     0.43880
N531        N  0.96740083  0.85850822  0.00017099    -0.34520
N532        N  0.94775131  0.83421921  0.50074590    -0.28770
C533        C  0.91762531  0.84562146  0.50082936    -0.04870
C534        C  0.91925738  0.87873134  0.50027157     0.07340
C535        C  0.95124419  0.88559393  0.99985248     0.01140
H536        H  0.89639824  0.83113210  0.50129543     0.08790
H537        H  0.96242653  0.90870528  0.99942394     0.07870
N538        N  0.99998397  0.75048642  0.00053205    -0.35970
N539        N  0.03148571  0.75083426  0.99902096    -0.28150
C540        C  0.04198608  0.72075180  0.99845088    -0.03390
C541        C  0.01625845  0.70019288  0.99994206     0.05220
C542        C  0.99010688  0.72011515  0.00116902     0.03310
H543        H  0.06680467  0.71475973  0.99665348     0.08420
H544        H  0.96541904  0.71322939  0.00259587     0.07250
N545        N  0.18210062  0.06824987  0.99971790    -0.27130
N546        N  0.15775359  0.04866091  0.00003623    -0.34990
C547        C  0.13079505  0.06493683  0.00010614     0.01210
C548        C  0.13783735  0.09690933  0.99982414     0.07230
C549        C  0.17090872  0.09842261  0.99957242    -0.05870
H550        H  0.10765313  0.05380386  0.00028773     0.07900
H551        H  0.18552195  0.11956583  0.99930399     0.09100
Cu552      Cu  0.16068418  0.00056249  0.00020348     0.44170
Cu553      Cu  0.22687923  0.04751482  0.99952335     0.41990
Cu554      Cu  0.22608922  0.95375840  0.99939616     0.43880
N555        N  0.15682949  0.95252107  0.99999444    -0.34520
N556        N  0.18105132  0.93289398  0.99959155    -0.28770
C557        C  0.16959674  0.90276451  0.99944244    -0.04870
C558        C  0.13650926  0.90434587  0.99978542     0.07340
C559        C  0.12969407  0.93631910  0.00012723     0.01140
H560        H  0.18403981  0.88157495  0.99911731     0.08790
H561        H  0.10659420  0.94743229  0.00040153     0.07870
N562        N  0.26512651  0.98475096  0.99982544    -0.35970
N563        N  0.26538102  0.01631091  0.99973229    -0.28150
C564        C  0.29567436  0.02639981  0.99995671    -0.03390
C565        C  0.31550102  0.00030354  0.00040843     0.05220
C566        C  0.29527664  0.97438654  0.00019794     0.03310
H567        H  0.30267997  0.05111569  0.00011248     0.08420
H568        H  0.30182112  0.94960229  0.99974604     0.07250
N569        N  0.94934612  0.16494596  0.00066054    -0.27130
N570        N  0.96870906  0.14048355  0.00002411    -0.34990
C571        C  0.95218616  0.11358129  0.99953760     0.01210
C572        C  0.92029649  0.12072923  0.99990065     0.07230
C573        C  0.91909700  0.15381048  0.00058042    -0.05870
H574        H  0.96308462  0.09033570  0.99900626     0.07900
H575        H  0.89805981  0.16848816  0.00110352     0.09100
Cu576      Cu  0.01676546  0.14305677  0.00001581     0.44170
Cu577      Cu  0.96985266  0.21019260  0.00157942     0.41990
Cu578      Cu  0.06294562  0.21082127  0.99799408     0.43880
N579        N  0.06478325  0.14127960  0.99984164    -0.34520
N580        N  0.08410831  0.16585168  0.99891861    -0.28770
C581        C  0.11437831  0.15479283  0.99886355    -0.04870
C582        C  0.11308684  0.12166233  0.99978422     0.07340
C583        C  0.08123204  0.11445878  0.00040704     0.01140
H584        H  0.13543909  0.16950955  0.99812981     0.08790
H585        H  0.07024193  0.09124702  0.00112544     0.07870
N586        N  0.03191624  0.24980988  0.99903530    -0.35970
N587        N  0.00042317  0.24957523  0.00122508    -0.28150
C588        C  0.99009674  0.27973903  0.00248165    -0.03390
C589        C  0.01595717  0.29989416  0.00074124     0.05220
C590        C  0.04196294  0.28015179  0.99838907     0.03310
H591        H  0.96537456  0.28647946  0.00392853     0.08420
H592        H  0.06658426  0.28731158  0.99679383     0.07250
N593        N  0.85005076  0.93213730  0.50067988    -0.27130
N594        N  0.87436942  0.95177542  0.50019345    -0.34990
C595        C  0.90142224  0.93555830  0.49992617     0.01210
C596        C  0.89449294  0.90356537  0.50028425     0.07230
C597        C  0.86138817  0.90199589  0.50076009    -0.05870
H598        H  0.92456223  0.94668926  0.49955886     0.07900
H599        H  0.84685388  0.88079967  0.50114458     0.09100
Cu600      Cu  0.87102765  0.99990613  0.50005773     0.44170
Cu601      Cu  0.80500452  0.95290615  0.50102885     0.41990
Cu602      Cu  0.80543061  0.04674256  0.49840381     0.43880
N603        N  0.87469633  0.04802785  0.49990083    -0.34520
N604        N  0.85044249  0.06762547  0.49918086    -0.28770
C605        C  0.86214483  0.09788426  0.99916819    -0.04870
C606        C  0.89523575  0.09612983  0.99989215     0.07340
C607        C  0.90186035  0.06412067  0.00037117     0.01140
H608        H  0.84780938  0.11916247  0.99858126     0.08790
H609        H  0.92488247  0.05285676  0.00097624     0.07870
N610        N  0.76645336  0.01569083  0.49915727    -0.35970
N611        N  0.76624112  0.98415426  0.50041240    -0.28150
C612        C  0.73591506  0.97412405  0.50101393    -0.03390
C613        C  0.71596733  0.00021792  0.50013708     0.05220
C614        C  0.73630619  0.02607292  0.49880537     0.03310
H615        H  0.72900935  0.94941745  0.50227514     0.08420
H616        H  0.72996835  0.05086022  0.49718089     0.07250
C617        C  0.63003926  0.02655252  0.50826949    -0.21150
C618        C  0.61340841  0.99903839  0.99993268    -0.09190
C619        C  0.63077237  0.97191664  0.99182652     0.29670
C620        C  0.66396943  0.97259171  0.99192053    -0.21150
C621        C  0.68065688  0.00013663  0.50023086    -0.09200
C622        C  0.66319286  0.02715484  0.50864452     0.29670
F623        F  0.67784905  0.05398841  0.51813503    -0.19730
H624        H  0.61734305  0.04768262  0.51497691     0.18040
H625        H  0.67654737  0.95147879  0.98506954     0.18040
F626        F  0.61580394  0.94486886  0.98324872    -0.19720
C627        C  0.40103431  0.97514376  0.51260924    -0.21150
C628        C  0.41772436  0.00076938  0.99977921    -0.09190
C629        C  0.40053353  0.02632013  0.98731531     0.29670
C630        C  0.36735219  0.02601175  0.98770144    -0.21150
C631        C  0.35066208  0.00031793  0.00049121    -0.09200
C632        C  0.36787854  0.97493981  0.51319448     0.29670
F633        F  0.35290819  0.95032393  0.52709635    -0.19730
H634        H  0.41372171  0.95538040  0.52271878     0.18040
H635        H  0.35471919  0.04573866  0.97749796     0.18040
F636        F  0.41569950  0.05120336  0.97401483    -0.19720
C637        C  0.53971316  0.01550565  0.89099006    -0.21070
C638        C  0.51535410  0.00000568  0.90683520    -0.09190
C639        C  0.49119644  0.98450434  0.89072109     0.29670
C640        C  0.49131495  0.98482910  0.85906340    -0.21150
C641        C  0.51599805  0.99983687  0.84307446    -0.09200
C642        C  0.54037550  0.01506433  0.85934355     0.29670
F643        F  0.56444369  0.03010581  0.84470029    -0.19730
H644        H  0.55851413  0.02752318  0.90319042     0.18040
H645        H  0.47232115  0.97295060  0.84702282     0.18040
F646        F  0.46712344  0.96973932  0.90561439    -0.19720
C647        C  0.51989331  0.02795445  0.60905168    -0.21150
C648        C  0.51548468  0.99938896  0.59323367    -0.09190
C649        C  0.51106682  0.97102916  0.60992691     0.29670
C650        C  0.51099737  0.97148857  0.64157742    -0.21150
C651        C  0.51561630  0.99997957  0.65705190    -0.09200
C652        C  0.52009911  0.02824465  0.64071005     0.29670
F653        F  0.52440259  0.05611164  0.65540533    -0.19730
H654        H  0.52336903  0.05012342  0.59693226     0.18040
H655        H  0.50748129  0.94953525  0.65407389     0.18040
F656        F  0.50653521  0.94286772  0.59582545    -0.19720
C657        C  0.99479763  0.38509998  0.51874619    -0.21150
C658        C  0.01570449  0.40186470  0.99979698    -0.09190
C659        C  0.03665433  0.38501279  0.98118917     0.29670
C660        C  0.03675960  0.35182332  0.98176897    -0.21150
C661        C  0.01586429  0.33496660  0.00072218    -0.09200
C662        C  0.99495220  0.35193318  0.51940278     0.29670
F663        F  0.97548488  0.33646269  0.53903234    -0.19730
H664        H  0.97874005  0.39773186  0.53349012     0.18040
H665        H  0.05279886  0.33924976  0.96697479     0.18040
F666        F  0.05621729  0.40061481  0.96172728    -0.19720
C667        C  0.98761681  0.64811438  0.99548382    -0.21150
C668        C  0.01623882  0.66476941  0.99994558    -0.09190
C669        C  0.04428142  0.64707250  0.50448012     0.29670
C670        C  0.04349881  0.61392467  0.50419085    -0.21150
C671        C  0.01490752  0.59740293  0.99975485    -0.09200
C672        C  0.98683095  0.61493412  0.99549567     0.29670
F673        F  0.95854932  0.60018159  0.99103940    -0.19730
H674        H  0.96557354  0.66064412  0.99170399     0.18040
H675        H  0.06548628  0.60114795  0.50780539     0.18040
F676        F  0.07255293  0.66135792  0.50989067    -0.19720
C677        C  0.01037956  0.47209737  0.85933951    -0.21150
C678        C  0.01474776  0.50069335  0.84315749    -0.09190
C679        C  0.01902026  0.52904881  0.85948482     0.29670
C680        C  0.01905936  0.52854555  0.89114966    -0.21150
C681        C  0.01449876  0.50001460  0.90697623    -0.09200
C682        C  0.01012997  0.47175927  0.89098732     0.29670
F683        F  0.00604948  0.44382904  0.90601771    -0.19730
H684        H  0.00703654  0.44991247  0.84751269     0.18040
H685        H  0.02253838  0.55048394  0.90337914     0.18040
F686        F  0.02347621  0.55722681  0.84501461    -0.19720
C687        C  0.98929609  0.48782683  0.60908542    -0.21150
C688        C  0.01593267  0.49903216  0.59308278    -0.09190
C689        C  0.04235301  0.51032510  0.60944310     0.29670
C690        C  0.04180763  0.51065119  0.64109618    -0.21150
C691        C  0.01537205  0.49903743  0.65686281    -0.09200
C692        C  0.98911909  0.48750832  0.64074201     0.29670
F693        F  0.96305872  0.47669087  0.65563633    -0.19730
H694        H  0.96867050  0.47901714  0.59707336     0.18040
H695        H  0.06218118  0.51967845  0.65336822     0.18040
F696        F  0.06842348  0.52167007  0.59493400    -0.19720
C697        C  0.16341897  0.47303548  0.75926612    -0.21150
C698        C  0.18009957  0.50019348  0.74956302    -0.09190
C699        C  0.16268003  0.52690012  0.73978524     0.29670
C700        C  0.12952457  0.52641776  0.74021856    -0.21150
C701        C  0.11291237  0.49929227  0.74994317    -0.09200
C702        C  0.13023046  0.47247169  0.75941865     0.29670
F703        F  0.11520248  0.44591249  0.76949714    -0.19730
H704        H  0.17602671  0.45220999  0.76719445     0.18040
H705        H  0.11679695  0.54725345  0.73241666     0.18040
F706        F  0.17741644  0.55322736  0.72887385    -0.19720
C707        C  0.54325295  0.14847736  0.75254309    -0.21150
C708        C  0.51438306  0.16505785  0.74988372    -0.09190
C709        C  0.48610813  0.14723619  0.74706592     0.29670
C710        C  0.48695540  0.11409313  0.74714847    -0.21150
C711        C  0.51580036  0.09769191  0.74976443    -0.09200
C712        C  0.54407496  0.11532502  0.75239193     0.29670
F713        F  0.57263620  0.10070581  0.75504319    -0.19730
H714        H  0.56552788  0.16099839  0.75493204     0.18040
H715        H  0.46478795  0.10123595  0.74491536     0.18040
F716        F  0.45744985  0.16135469  0.74375748    -0.19720
C717        C  0.48912164  0.85140387  0.74152938    -0.21150
C718        C  0.51657768  0.83473750  0.75024988    -0.09190
C719        C  0.54364409  0.85218238  0.75898177     0.29670
C720        C  0.54316488  0.88534196  0.75855582    -0.21150
C721        C  0.51570810  0.90192751  0.74987575    -0.09200
C722        C  0.48856204  0.88456314  0.74139135     0.29670
F723        F  0.46159141  0.89950438  0.73238762    -0.19730
H724        H  0.46799852  0.83882646  0.73439222     0.18040
H725        H  0.56428075  0.89807627  0.76554358     0.18040
F726        F  0.57036644  0.83747989  0.76886326    -0.19720
C727        C  0.90089762  0.47770283  0.76657955    -0.21150
C728        C  0.91744369  0.50059469  0.74957456    -0.09190
C729        C  0.90027183  0.52346111  0.73302357     0.29670
C730        C  0.86708793  0.52335600  0.73363471    -0.21150
C731        C  0.85051101  0.50042115  0.75061521    -0.09200
C732        C  0.86774373  0.47767038  0.76730277     0.29670
F733        F  0.85265419  0.45608123  0.78513995    -0.19730
H734        H  0.91370755  0.46013310  0.77980105     0.18040
H735        H  0.85431722  0.54089588  0.72035943     0.18040
F736        F  0.91551454  0.54523231  0.71549335    -0.19720
loop_ 
_geom_bond_atom_site_label_1 
_geom_bond_atom_site_label_2 
_geom_bond_distance 
_geom_bond_site_symmetry_2 
_ccdc_geom_bond_type 
N1            N2   1.315       .  A
N1            C5   1.358       .  A
N1           Cu9   2.090       .  S
N2            C3   1.330       .  A
N2           Cu8   2.031       .  S
C3            C4   1.378       .  A
C3            H6   1.081       .  S
C4            C5   1.396       .  A
C4           C38   1.478       .  S
C5            H7   1.082       .  S
Cu8          N11   2.031       .  S
Cu9          N19   2.099       .  S
Cu10         N12   2.090       .  S
Cu10         N18   2.099       .  S
N11          N12   1.315       .  A
N11          C15   1.330       .  A
N12          C13   1.358       .  A
C13          C14   1.396       .  A
C13          H16   1.082       .  S
C14          C15   1.378       .  A
C14          C62   1.479       .  S
C15          H17   1.081       .  S
N18          N19   1.331       .  A
N18          C22   1.345       .  A
N19          C20   1.346       .  A
C20          C21   1.382       .  A
C20          H23   1.082       .  S
C21          C22   1.382       .  A
C21         C363   1.478       .  S
C22          H24   1.082       .  S
N25          N26   1.316       .  A
N25          C29   1.358       .  A
N25         Cu33   2.090       .  S
N26          C27   1.330       .  A
N26         Cu32   2.033       .  S
C27          C28   1.378       .  A
C27          H30   1.081       .  S
C28          C29   1.396       .  A
C28          C86   1.478       .  S
C29          H31   1.082       .  S
Cu32         N35   2.033       .  S
Cu33         N43   2.099       .  S
Cu34         N36   2.088       .  S
Cu34         N42   2.097       .  S
N35          N36   1.315       .  A
N35          C39   1.331       .  A
N36          C37   1.357       .  A
C37          C38   1.396       .  A
C37          H40   1.082       .  S
C38          C39   1.379       .  A
C39          H41   1.081       .  S
N42          N43   1.330       .  A
N42          C46   1.344       .  A
N43          C44   1.345       .  A
C44          C45   1.386       .  A
C44          H47   1.082       .  S
C45          C46   1.385       .  A
C45         C350   1.486       .  S
C46          H48   1.081       .  S
N49          N50   1.315       .  A
N49          C53   1.357       .  A
N49         Cu57   2.088       .  S
N50          C51   1.331       .  A
N50         Cu56   2.034       .  S
C51          C52   1.379       .  A
C51          H54   1.081       .  S
C52          C53   1.396       .  A
C52          C76   1.478       .  S
C53          H55   1.082       .  S
Cu56         N59   2.034       .  S
Cu57         N67   2.096       .  S
Cu58         N60   2.090       .  S
Cu58         N66   2.099       .  S
N59          N60   1.316       .  A
N59          C63   1.330       .  A
N60          C61   1.358       .  A
C61          C62   1.396       .  A
C61          H64   1.082       .  S
C62          C63   1.379       .  A
C63          H65   1.081       .  S
N66          N67   1.329       .  A
N66          C70   1.344       .  A
N67          C68   1.344       .  A
C68          C69   1.388       .  A
C68          H71   1.079       .  S
C69          C70   1.389       .  A
C69         C340   1.494       .  S
C70          H72   1.081       .  S
N73          N74   1.316       .  A
N73          C77   1.358       .  A
N73         Cu81   2.092       .  S
N74          C75   1.330       .  A
N74         Cu80   2.030       .  S
C75          C76   1.378       .  A
C75          H78   1.081       .  S
C76          C77   1.397       .  A
C77          H79   1.082       .  S
Cu80         N83   2.030       .  S
Cu81         N91   2.101       .  S
Cu82         N84   2.089       .  S
Cu82         N90   2.098       .  S
N83          N84   1.315       .  A
N83          C87   1.330       .  A
N84          C85   1.358       .  A
C85          C86   1.396       .  A
C85          H88   1.082       .  S
C86          C87   1.378       .  A
C87          H89   1.081       .  S
N90          N91   1.330       .  A
N90          C94   1.344       .  A
N91          C92   1.345       .  A
C92          C93   1.385       .  A
C92          H95   1.082       .  S
C93          C94   1.385       .  A
C93         C330   1.486       .  S
C94          H96   1.081       .  S
O97        Cu105   2.012       .  S
O97         C107   1.279   1_655  A
O98        Cu105   2.005       .  S
O98         C108   1.277   1_655  A
O99        Cu473   2.006       .  S
O99         C109   1.278   1_655  A
O100       Cu105   2.010       .  S
O100        C110   1.277   1_655  A
O101       Cu106   2.004       .  S
O101        C110   1.276       .  A
O102       Cu474   2.010   1_554  S
O102        C109   1.278       .  A
O103       Cu106   2.010       .  S
O103        C108   1.278       .  A
O104       Cu106   2.004       .  S
O104        C107   1.278       .  A
Cu105       O467   2.006       .  S
Cu105      Cu106   2.374   1_655  S
Cu106       O470   2.010       .  S
C107        C303   1.484       .  S
C108        C290   1.472       .  S
C109        C320   1.480       .  S
C110        C313   1.464       .  S
O111       Cu119   2.004   1_655  S
O111        C121   1.277       .  A
O112       Cu119   2.012       .  S
O112        C122   1.278       .  A
O113       Cu119   2.004       .  S
O113        C123   1.278       .  A
O114       Cu119   2.011       .  S
O114        C124   1.277       .  A
O115       Cu120   2.004       .  S
O115        C124   1.276       .  A
O116       Cu120   2.012       .  S
O116        C123   1.279       .  A
O117       Cu120   2.004       .  S
O117        C122   1.278       .  A
O118       Cu120   2.011   1_655  S
O118        C121   1.278       .  A
Cu119      Cu120   2.373       .  S
C121        C360   1.475       .  S
C122        C333   1.481       .  S
C123        C310   1.484       .  S
C124        C323   1.466       .  S
O125       Cu133   2.003       .  S
O125        C135   1.278   1_545  A
O126       Cu133   2.011       .  S
O126        C136   1.278       .  A
O127       Cu501   2.011   1_554  S
O127        C137   1.279   1_545  A
O128       Cu133   2.008       .  S
O128        C138   1.277   1_545  A
O129       Cu134   2.007       .  S
O129        C138   1.277       .  A
O130       Cu502   2.006   1_554  S
O130        C137   1.278       .  A
O131       Cu134   2.005       .  S
O131        C136   1.278   1_565  A
O132       Cu134   2.013       .  S
O132        C135   1.279       .  A
Cu133       O495   2.011       .  S
Cu133      Cu134   2.371   1_545  S
Cu134       O498   2.006       .  S
C135        C250   1.482       .  S
C136        C260   1.479       .  S
C137        C280   1.484       .  S
C138        C270   1.468   1_565  S
O139       Cu147   2.011       .  S
O139        C149   1.279       .  A
O140       Cu147   2.004   1_545  S
O140        C150   1.277       .  A
O141       Cu147   2.006   1_545  S
O141        C151   1.278   1_545  A
O142       Cu147   2.008       .  S
O142        C152   1.277   1_565  A
O143       Cu148   2.006       .  S
O143        C152   1.276   1_565  A
O144       Cu148   2.009       .  S
O144        C151   1.278       .  A
O145       Cu148   2.009   1_545  S
O145        C150   1.279       .  A
O146       Cu148   2.003       .  S
O146        C149   1.277       .  A
Cu147      Cu148   2.373       .  S
C149        C353   1.481       .  S
C150        C343   1.484       .  S
C151        C273   1.477       .  S
C152        C283   1.464   1_545  S
N153        N154   1.315       .  A
N153        C157   1.358       .  A
N153       Cu161   2.089       .  S
N154        C155   1.330       .  A
N154       Cu160   2.032       .  S
C155        C156   1.379       .  A
C155        H158   1.081       .  S
C156        C157   1.396       .  A
C156        C190   1.478       .  S
C157        H159   1.082       .  S
Cu160       N163   2.032   1_455  S
Cu161       N171   2.098       .  S
Cu162       N170   2.102       .  S
Cu162       N532   2.094       .  S
N163        N532   1.316       .  A
N163        C167   1.330       .  A
N164        N531   1.316       .  A
N164        C165   1.358       .  A
N164       Cu530   2.094       .  S
C165        C166   1.397       .  A
C165        H168   1.082       .  S
C166        C535   1.378   1_554  A
C166        C228   1.480       .  S
C167        C534   1.378       .  A
C167        H169   1.081       .  S
N170        N171   1.329   1_655  A
N170        C174   1.345       .  A
N171        C172   1.344       .  A
C172        C173   1.388       .  A
C172        H175   1.080       .  S
C173        C174   1.388   1_455  A
C173        C300   1.493       .  S
C174        H176   1.081       .  S
N177        N178   1.316       .  A
N177        C181   1.358       .  A
N177       Cu185   2.091       .  S
N178        C179   1.330       .  A
N178       Cu184   2.032       .  S
C179        C180   1.379       .  A
C179        H182   1.081       .  S
C180        C181   1.396       .  A
C180        C214   1.479       .  S
C181        H183   1.082       .  S
Cu184       N187   2.032   1_545  S
Cu185       N195   2.100       .  S
Cu186       N188   2.089       .  S
Cu186       N194   2.098       .  S
N187        N188   1.315       .  A
N187        C191   1.330       .  A
N188        C189   1.357       .  A
C189        C190   1.396       .  A
C189        H192   1.082       .  S
C190        C191   1.379       .  A
C191        H193   1.081       .  S
N194        N195   1.330   1_565  A
N194        C198   1.345       .  A
N195        C196   1.346       .  A
C196        C197   1.384       .  A
C196        H199   1.082       .  S
C197        C198   1.384   1_545  A
C197        C263   1.483       .  S
C198        H200   1.081       .  S
N201        N202   1.316       .  A
N201        C205   1.358       .  A
N201       Cu209   2.091       .  S
N202        C203   1.330       .  A
N202       Cu208   2.032   1_655  S
C203        C204   1.378       .  A
C203        H206   1.081       .  S
C204        C205   1.396       .  A
C204        C238   1.479       .  S
C205        H207   1.082       .  S
Cu208       N211   2.032       .  S
Cu209       N219   2.099   1_655  S
Cu210       N212   2.091       .  S
Cu210       N218   2.099       .  S
N211        N212   1.316       .  A
N211        C215   1.330       .  A
N212        C213   1.358       .  A
C213        C214   1.396       .  A
C213        H216   1.082       .  S
C214        C215   1.379       .  A
C215        H217   1.081       .  S
N218        N219   1.331       .  A
N218        C222   1.346       .  A
N219        C220   1.345   1_455  A
C220        C221   1.381   1_655  A
C220        H223   1.082       .  S
C221        C222   1.381       .  A
C221        C293   1.476       .  S
C222        H224   1.082       .  S
N225        N226   1.316       .  A
N225        C229   1.358       .  A
N225       Cu233   2.092       .  S
N226        C227   1.331   1_554  A
N226       Cu232   2.034       .  S
C227        C228   1.379   1_556  A
C227        H230   1.081       .  S
C228        C229   1.396       .  A
C229        H231   1.082       .  S
Cu232       N235   2.033   1_564  S
Cu233       N243   2.100       .  S
Cu234       N236   2.091       .  S
Cu234       N242   2.100       .  S
N235        N236   1.316       .  A
N235        C607   1.330   1_556  A
N236        C605   1.358       .  A
C237        N604   1.358       .  A
C237        C238   1.396       .  A
C237        H240   1.082       .  S
C238        C239   1.379       .  A
C239        N603   1.331       .  A
C239        H241   1.081       .  S
N242        N243   1.330   1_546  A
N242        C246   1.345       .  A
N243        C244   1.345       .  A
C244        C245   1.386   1_565  A
C244        H247   1.082       .  S
C245        C246   1.386   1_554  A
C245        C253   1.488       .  S
C246        H248   1.081       .  S
C249        C254   1.397       .  A
C249        C618   1.405   1_544  A
C249        H256   1.083       .  S
C250        C251   1.408       .  A
C250        C617   1.405   1_565  A
C251        C252   1.399       .  A
C251        F258   1.357       .  S
C252        C621   1.407   1_565  A
C252        H257   1.082       .  S
C253        C254   1.410       .  A
C253        C620   1.407   1_544  A
C254        F255   1.356       .  S
C259        C264   1.397       .  A
C259        C628   1.404   1_564  A
C259        H266   1.083       .  S
C260        C261   1.407       .  A
C260        C627   1.404   1_545  A
C261        C262   1.399       .  A
C261        F268   1.357       .  S
C262        C263   1.406       .  A
C262        H267   1.083       .  S
C263        C632   1.408   1_545  A
C264        C631   1.408   1_565  A
C264        F265   1.357       .  S
C269        C270   1.401       .  A
C269        C274   1.398       .  A
C269        H276   1.084       .  S
C270        C271   1.403   1_545  A
C271        C272   1.398       .  A
C271        F278   1.358       .  S
C272        C273   1.405       .  A
C272        H277   1.083       .  S
C273        C274   1.408   1_565  A
C274        F275   1.358       .  S
C279        C280   1.408   1_545  A
C279        C284   1.398       .  A
C279        H286   1.083       .  S
C280        C281   1.412       .  A
C281        C282   1.398       .  A
C281        F288   1.357       .  S
C282        C283   1.399       .  A
C282        H287   1.084       .  S
C283        C284   1.401   1_565  A
C284        F285   1.358       .  S
C289        C294   1.398       .  A
C289        C658   1.403   1_654  A
C289        H296   1.084       .  S
C290        C291   1.405       .  A
C290        C657   1.403   1_455  A
C291        C292   1.398       .  A
C291        F298   1.358       .  S
C292        C293   1.404       .  A
C292        H297   1.083       .  S
C293        C662   1.406   1_455  A
C294        C661   1.407   1_655  A
C294        F295   1.357       .  S
C299        C300   1.408   1_655  A
C299        C304   1.399       .  A
C299        H306   1.081       .  S
C300        C669   1.412       .  A
C301        C302   1.397       .  A
C301        C668   1.412   1_554  A
C301        F308   1.355       .  S
C302        C671   1.404   1_554  A
C302        H307   1.083       .  S
C303        C304   1.408   1_455  A
C303        C670   1.404       .  A
C304        F305   1.357       .  S
C309        C310   1.408       .  A
C309        C314   1.398       .  A
C309        H316   1.083       .  S
C310        C311   1.411       .  A
C311        C312   1.398       .  A
C311        F318   1.357       .  S
C312        C313   1.399       .  A
C312        H317   1.084       .  S
C313        C314   1.400       .  A
C314        F315   1.358       .  S
C319        C320   1.407   1_655  A
C319        C324   1.398       .  A
C319        H326   1.083       .  S
C320        C321   1.409       .  A
C321        C322   1.398       .  A
C321        F328   1.357       .  S
C322        C323   1.401       .  A
C322        H327   1.084       .  S
C323        C324   1.402   1_455  A
C324        F325   1.358       .  S
C329        C330   1.406       .  A
C329        C334   1.399       .  A
C329        H336   1.082       .  S
C330        C331   1.409       .  A
C331        C332   1.397       .  A
C331        F338   1.356       .  S
C332        C333   1.404       .  A
C332        H337   1.083       .  S
C333        C334   1.407       .  A
C334        F335   1.357       .  S
C339        C340   1.408       .  A
C339        C344   1.398       .  A
C339        H346   1.081       .  S
C340        C341   1.413       .  A
C341        C342   1.397       .  A
C341        F348   1.354       .  S
C342        C343   1.404       .  A
C342        H347   1.083       .  S
C343        C344   1.408       .  A
C344        F345   1.358       .  S
C349        C350   1.406       .  A
C349        C354   1.398       .  A
C349        H356   1.082       .  S
C350        C351   1.410       .  A
C351        C352   1.398       .  A
C351        F358   1.356       .  S
C352        C353   1.404       .  A
C352        H357   1.083       .  S
C353        C354   1.408       .  A
C354        F355   1.358       .  S
C359        C360   1.403       .  A
C359        C364   1.397       .  A
C359        H366   1.084       .  S
C360        C361   1.406       .  A
C361        C362   1.399       .  A
C361        F368   1.358       .  S
C362        C363   1.405       .  A
C362        H367   1.083       .  S
C363        C364   1.407       .  A
C364        F365   1.357       .  S
N369        N370   1.315       .  A
N369        C373   1.358       .  A
N369       Cu377   2.090       .  S
N370        C371   1.330       .  A
N370       Cu376   2.031       .  S
C371        C372   1.378       .  A
C371        H374   1.081       .  S
C372        C373   1.396       .  A
C372        C406   1.478       .  S
C373        H375   1.082       .  S
Cu376       N379   2.031       .  S
Cu377       N387   2.099       .  S
Cu378       N380   2.090       .  S
Cu378       N386   2.099       .  S
N379        N380   1.315       .  A
N379        C383   1.330       .  A
N380        C381   1.358       .  A
C381        C382   1.396       .  A
C381        H384   1.082       .  S
C382        C383   1.378       .  A
C382        C430   1.479       .  S
C383        H385   1.081       .  S
N386        N387   1.331       .  A
N386        C390   1.345       .  A
N387        C388   1.346       .  A
C388        C389   1.382       .  A
C388        H391   1.082       .  S
C389        C390   1.382       .  A
C389        C731   1.478       .  S
C390        H392   1.082       .  S
N393        N394   1.316       .  A
N393        C397   1.358       .  A
N393       Cu401   2.090       .  S
N394        C395   1.330       .  A
N394       Cu400   2.033       .  S
C395        C396   1.378       .  A
C395        H398   1.081       .  S
C396        C397   1.396       .  A
C396        C454   1.478       .  S
C397        H399   1.082       .  S
Cu400       N403   2.033       .  S
Cu401       N411   2.099       .  S
Cu402       N404   2.088       .  S
Cu402       N410   2.097       .  S
N403        N404   1.315       .  A
N403        C407   1.331       .  A
N404        C405   1.357       .  A
C405        C406   1.396       .  A
C405        H408   1.082       .  S
C406        C407   1.379       .  A
C407        H409   1.081       .  S
N410        N411   1.330       .  A
N410        C414   1.344       .  A
N411        C412   1.345       .  A
C412        C413   1.386       .  A
C412        H415   1.082       .  S
C413        C414   1.385       .  A
C413        C718   1.486       .  S
C414        H416   1.081       .  S
N417        N418   1.315       .  A
N417        C421   1.357       .  A
N417       Cu425   2.088       .  S
N418        C419   1.331       .  A
N418       Cu424   2.034       .  S
C419        C420   1.379       .  A
C419        H422   1.081       .  S
C420        C421   1.396       .  A
C420        C444   1.478       .  S
C421        H423   1.082       .  S
Cu424       N427   2.034       .  S
Cu425       N435   2.096       .  S
Cu426       N428   2.090       .  S
Cu426       N434   2.099       .  S
N427        N428   1.316       .  A
N427        C431   1.330       .  A
N428        C429   1.358       .  A
C429        C430   1.396       .  A
C429        H432   1.082       .  S
C430        C431   1.379       .  A
C431        H433   1.081       .  S
N434        N435   1.329       .  A
N434        C438   1.344       .  A
N435        C436   1.344       .  A
C436        C437   1.388       .  A
C436        H439   1.079       .  S
C437        C438   1.389       .  A
C437        C708   1.494       .  S
C438        H440   1.081       .  S
N441        N442   1.316       .  A
N441        C445   1.358       .  A
N441       Cu449   2.092       .  S
N442        C443   1.330       .  A
N442       Cu448   2.030       .  S
C443        C444   1.378       .  A
C443        H446   1.081       .  S
C444        C445   1.397       .  A
C445        H447   1.082       .  S
Cu448       N451   2.030       .  S
Cu449       N459   2.101       .  S
Cu450       N452   2.089       .  S
Cu450       N458   2.098       .  S
N451        N452   1.315       .  A
N451        C455   1.330       .  A
N452        C453   1.358       .  A
C453        C454   1.396       .  A
C453        H456   1.082       .  S
C454        C455   1.378       .  A
C455        H457   1.081       .  S
N458        N459   1.330       .  A
N458        C462   1.344       .  A
N459        C460   1.345       .  A
C460        C461   1.385       .  A
C460        H463   1.082       .  S
C461        C462   1.385       .  A
C461        C698   1.486       .  S
C462        H464   1.081       .  S
O465       Cu473   2.012   1_556  S
O465        C475   1.279   1_655  A
O466       Cu473   2.006       .  S
O466        C476   1.277   1_654  A
O467        C477   1.278   1_655  A
O468       Cu473   2.010   1_556  S
O468        C478   1.277   1_655  A
O469       Cu474   2.004       .  S
O469        C478   1.276       .  A
O470        C477   1.278       .  A
O471       Cu474   2.011       .  S
O471        C476   1.278       .  A
O472       Cu474   2.004   1_554  S
O472        C475   1.278   1_554  A
Cu473      Cu474   2.374   1_654  S
C475        C671   1.484       .  S
C476        C658   1.473       .  S
C477        C688   1.480       .  S
C478        C681   1.464       .  S
O479       Cu487   2.004   1_655  S
O479        C489   1.277       .  A
O480       Cu487   2.012       .  S
O480        C490   1.278       .  A
O481       Cu487   2.004       .  S
O481        C491   1.278       .  A
O482       Cu487   2.011       .  S
O482        C492   1.277       .  A
O483       Cu488   2.004       .  S
O483        C492   1.276       .  A
O484       Cu488   2.012       .  S
O484        C491   1.279       .  A
O485       Cu488   2.004       .  S
O485        C490   1.278       .  A
O486       Cu488   2.011   1_655  S
O486        C489   1.278       .  A
Cu487      Cu488   2.373       .  S
C489        C728   1.475       .  S
C490        C701   1.481       .  S
C491        C678   1.484       .  S
C492        C691   1.466       .  S
O493       Cu501   2.003   1_554  S
O493        C503   1.278   1_544  A
O494       Cu501   2.011       .  S
O494        C504   1.278       .  A
O495        C505   1.279   1_545  A
O496       Cu501   2.008       .  S
O496        C506   1.277   1_545  A
O497       Cu502   2.007       .  S
O497        C506   1.277       .  A
O498        C505   1.278       .  A
O499       Cu502   2.004   1_554  S
O499        C504   1.278   1_564  A
O500       Cu502   2.014       .  S
O500        C503   1.279       .  A
Cu501      Cu502   2.371   1_545  S
C503        C618   1.483       .  S
C504        C628   1.478       .  S
C505        C648   1.484       .  S
C506        C638   1.468   1_565  S
O507       Cu515   2.011       .  S
O507        C517   1.279       .  A
O508       Cu515   2.004   1_545  S
O508        C518   1.277       .  A
O509       Cu515   2.006   1_545  S
O509        C519   1.278   1_545  A
O510       Cu515   2.008       .  S
O510        C520   1.277   1_565  A
O511       Cu516   2.006       .  S
O511        C520   1.276   1_565  A
O512       Cu516   2.009       .  S
O512        C519   1.278       .  A
O513       Cu516   2.009   1_545  S
O513        C518   1.279       .  A
O514       Cu516   2.003       .  S
O514        C517   1.277       .  A
Cu515      Cu516   2.373       .  S
C517        C721   1.481       .  S
C518        C711   1.484       .  S
C519        C641   1.477       .  S
C520        C651   1.464   1_545  S
N521        N522   1.315       .  A
N521        C525   1.357       .  A
N521       Cu529   2.089       .  S
N522        C523   1.330   1_556  A
N522       Cu528   2.032   1_556  S
C523        C524   1.379   1_554  A
C523        H526   1.081       .  S
C524        C525   1.396       .  A
C524        C558   1.478       .  S
C525        H527   1.082       .  S
Cu528       N531   2.032   1_455  S
Cu529       N539   2.098       .  S
Cu530       N538   2.102       .  S
N531        C535   1.330   1_554  A
N532        C533   1.358       .  A
C533        C534   1.397       .  A
C533        H536   1.082       .  S
C534        C596   1.480       .  S
C535        H537   1.081       .  S
N538        N539   1.329   1_654  A
N538        C542   1.345       .  A
N539        C540   1.344       .  A
C540        C541   1.388       .  A
C540        H543   1.080       .  S
C541        C542   1.388   1_456  A
C541        C668   1.493       .  S
C542        H544   1.081       .  S
N545        N546   1.315   1_556  A
N545        C549   1.357       .  A
N545       Cu553   2.081       .  S
N546        C547   1.328       .  A
N546       Cu552   2.031       .  S
C547        C548   1.379   1_554  A
C547        H550   1.081       .  S
C548        C549   1.395       .  A
C548        C582   1.477       .  S
C549        H551   1.082       .  S
Cu552       N555   2.031   1_544  S
Cu553       N563   2.091       .  S
Cu554       N556   2.090       .  S
Cu554       N562   2.098       .  S
N555        N556   1.315       .  A
N555        C559   1.330   1_556  A
N556        C557   1.357       .  A
C557        C558   1.396       .  A
C557        H560   1.082       .  S
C558        C559   1.379   1_556  A
C559        H561   1.081       .  S
N562        N563   1.330   1_565  A
N562        C566   1.344   1_556  A
N563        C564   1.344       .  A
C564        C565   1.383   1_556  A
C564        H567   1.082   1_556  S
C565        C566   1.384   1_545  A
C565        C631   1.481       .  S
C566        H568   1.081   1_554  S
N569        N570   1.317       .  A
N569        C573   1.357       .  A
N569       Cu577   2.092       .  S
N570        C571   1.329   1_554  A
N570       Cu576   2.028   1_655  S
C571        C572   1.378       .  A
C571        H574   1.083       .  S
C572        C573   1.396   1_556  A
C572        C606   1.478       .  S
C573        H575   1.082       .  S
Cu576       N579   2.025   1_554  S
Cu577       N587   2.099   1_655  S
Cu578       N580   2.096       .  S
Cu578       N586   2.103       .  S
N579        N580   1.316       .  A
N579        C583   1.327   1_556  A
N580        C581   1.359       .  A
C581        C582   1.397       .  A
C581        H584   1.082       .  S
C582        C583   1.376   1_556  A
C583        H585   1.082       .  S
N586        N587   1.331   1_556  A
N586        C590   1.346       .  A
N587        C588   1.346   1_455  A
C588        C589   1.382   1_655  A
C588        H591   1.082       .  S
C589        C590   1.382   1_554  A
C589        C661   1.478       .  S
C590        H592   1.082       .  S
N593        N594   1.316       .  A
N593        C597   1.358       .  A
N593       Cu601   2.092       .  S
N594        C595   1.330       .  A
N594       Cu600   2.034       .  S
C595        C596   1.379       .  A
C595        H598   1.081       .  S
C596        C597   1.396       .  A
C597        H599   1.082       .  S
Cu600       N603   2.033   1_565  S
Cu601       N611   2.100       .  S
Cu602       N604   2.089       .  S
Cu602       N610   2.098       .  S
N603        N604   1.316       .  A
C605        C606   1.397       .  A
C605        H608   1.082       .  S
C606        C607   1.378   1_556  A
C607        H609   1.081       .  S
N610        N611   1.330   1_545  A
N610        C614   1.344       .  A
N611        C612   1.345       .  A
C612        C613   1.386   1_565  A
C612        H615   1.082       .  S
C613        C614   1.386       .  A
C613        C621   1.488       .  S
C614        H616   1.081       .  S
C617        C622   1.397       .  A
C617        H624   1.083       .  S
C618        C619   1.408       .  A
C619        C620   1.399       .  A
C619        F626   1.357       .  S
C620        H625   1.082       .  S
C621        C622   1.410       .  A
C622        F623   1.356       .  S
C627        C632   1.397       .  A
C627        H634   1.083       .  S
C628        C629   1.407       .  A
C629        C630   1.398       .  A
C629        F636   1.357       .  S
C630        C631   1.406   1_556  A
C630        H635   1.083       .  S
C632        F633   1.357       .  S
C637        C638   1.401       .  A
C637        C642   1.398       .  A
C637        H644   1.084       .  S
C638        C639   1.403   1_545  A
C639        C640   1.398       .  A
C639        F646   1.358       .  S
C640        C641   1.405       .  A
C640        H645   1.083       .  S
C641        C642   1.408   1_565  A
C642        F643   1.358       .  S
C647        C648   1.408   1_545  A
C647        C652   1.398       .  A
C647        H654   1.083       .  S
C648        C649   1.412       .  A
C649        C650   1.398       .  A
C649        F656   1.357       .  S
C650        C651   1.399       .  A
C650        H655   1.084       .  S
C651        C652   1.401   1_565  A
C652        F653   1.358       .  S
C657        C662   1.398       .  A
C657        H664   1.084       .  S
C658        C659   1.405       .  A
C659        C660   1.399       .  A
C659        F666   1.358       .  S
C660        C661   1.404   1_556  A
C660        H665   1.083       .  S
C662        F663   1.357       .  S
C667        C668   1.408   1_655  A
C667        C672   1.399       .  A
C667        H674   1.081       .  S
C669        C670   1.397       .  A
C669        F676   1.355       .  S
C670        H675   1.083       .  S
C671        C672   1.408   1_455  A
C672        F673   1.357       .  S
C677        C678   1.408       .  A
C677        C682   1.398       .  A
C677        H684   1.083       .  S
C678        C679   1.411       .  A
C679        C680   1.398       .  A
C679        F686   1.357       .  S
C680        C681   1.399       .  A
C680        H685   1.084       .  S
C681        C682   1.400       .  A
C682        F683   1.358       .  S
C687        C688   1.407   1_655  A
C687        C692   1.398       .  A
C687        H694   1.083       .  S
C688        C689   1.409       .  A
C689        C690   1.398       .  A
C689        F696   1.357       .  S
C690        C691   1.401       .  A
C690        H695   1.084       .  S
C691        C692   1.402   1_455  A
C692        F693   1.358       .  S
C697        C698   1.406       .  A
C697        C702   1.399       .  A
C697        H704   1.082       .  S
C698        C699   1.409       .  A
C699        C700   1.397       .  A
C699        F706   1.356       .  S
C700        C701   1.404       .  A
C700        H705   1.083       .  S
C701        C702   1.407       .  A
C702        F703   1.357       .  S
C707        C708   1.408       .  A
C707        C712   1.398       .  A
C707        H714   1.081       .  S
C708        C709   1.413       .  A
C709        C710   1.397       .  A
C709        F716   1.354       .  S
C710        C711   1.404       .  A
C710        H715   1.083       .  S
C711        C712   1.408       .  A
C712        F713   1.358       .  S
C717        C718   1.406       .  A
C717        C722   1.398       .  A
C717        H724   1.082       .  S
C718        C719   1.410       .  A
C719        C720   1.398       .  A
C719        F726   1.356       .  S
C720        C721   1.404       .  A
C720        H725   1.083       .  S
C721        C722   1.408       .  A
C722        F723   1.358       .  S
C727        C728   1.403       .  A
C727        C732   1.397       .  A
C727        H734   1.084       .  S
C728        C729   1.406       .  A
C729        C730   1.399       .  A
C729        F736   1.358       .  S
C730        C731   1.405       .  A
C730        H735   1.083       .  S
C731        C732   1.407       .  A
C732        F733   1.357       .  S
