geometry optimzed in LAMMPS
_audit_creation_date              2020-12-01 
_audit_creation_method            'lammps2cif' 
_symmetry_space_group_name_H-M    'P1' 
_symmetry_Int_Tables_number       1 
_symmetry_cell_setting            triclinic 
loop_ 
_symmetry_equiv_pos_as_xyz 
  x,y,z 
_cell_length_a                    42.67458172 
_cell_length_b                    42.6777616131532 
_cell_length_c                    31.290324780947188 
_cell_angle_alpha                 90.24143155748355 
_cell_angle_beta                  90.27422270465581 
_cell_angle_gamma                 119.2995782128302 
loop_ 
_atom_site_label 
_atom_site_type_symbol 
_atom_site_fract_x 
_atom_site_fract_y 
_atom_site_fract_z 
_atom_site_charge 
C1          C  0.24952063  0.37477550  0.16118360     0.79400
N2          N  0.24163658  0.34440171  0.13886253    -0.78900
C3          C  0.23636432  0.34292343  0.09592758     0.81800
N4          N  0.24037687  0.37269398  0.07531948    -0.78900
C5          C  0.24897698  0.40350222  0.09754975     0.81900
N6          N  0.25292370  0.40424660  0.14062967    -0.80600
C7          C  0.26194645  0.37457794  0.37371386     0.79400
N8          N  0.25870121  0.40064783  0.39514811    -0.78900
C9          C  0.25465350  0.39851898  0.43819930     0.81800
N10         N  0.25419799  0.37097404  0.45939284    -0.78900
C11         C  0.25826210  0.34561270  0.43858523     0.81900
N12         N  0.26176308  0.34687328  0.39541945    -0.80600
C13         C  0.09539937  0.36872682  0.37868059     0.79400
N14         N  0.07224842  0.33917401  0.40120471    -0.78900
C15         C  0.07660094  0.33844543  0.44416364     0.81800
N16         N  0.10320317  0.36734358  0.46427727    -0.78900
C17         C  0.12569320  0.39703086  0.44228535     0.81900
N18         N  0.12240811  0.39761146  0.39918168    -0.80600
C19         C  0.08983581  0.36342699  0.16504636     0.79400
N20         N  0.11930556  0.38662882  0.14244234    -0.78900
C21         C  0.11994022  0.38229529  0.09947372     0.81800
N22         N  0.09102605  0.35563855  0.07943035    -0.78900
C23         C  0.06142168  0.33307181  0.10151111     0.81900
N24         N  0.06094919  0.33635090  0.14462424    -0.80600
C25         C  0.08432567  0.19669056  0.17020769     0.79400
N26         N  0.05827631  0.19997113  0.14876219    -0.78900
C27         C  0.06034698  0.20392821  0.10570261     0.81800
N28         N  0.08781726  0.20424312  0.08449671    -0.78900
C29         C  0.11316815  0.20014345  0.10532460     0.81900
N30         N  0.11197650  0.19677070  0.14851066    -0.80600
C31         C  0.08433575  0.21027793  0.38261462     0.79400
N32         N  0.11466537  0.21809824  0.40501435    -0.78900
C33         C  0.11592382  0.22289145  0.44802026     0.81800
N34         N  0.08599896  0.21843971  0.46860159    -0.78900
C35         C  0.05524034  0.20987630  0.44628993     0.81900
N36         N  0.05469889  0.20643951  0.40315360    -0.80600
C37         C  0.36601780  0.10605064  0.37869254     0.79400
N38         N  0.39543048  0.13120153  0.40051859    -0.78900
C39         C  0.39581962  0.13073859  0.44404259     0.81800
N40         N  0.36625946  0.10629118  0.46527133    -0.78900
C41         C  0.33673795  0.08176090  0.44365464     0.81900
N42         N  0.33694701  0.08128812  0.40032652    -0.80600
C43         C  0.35255645  0.09315213  0.16501336     0.79400
N44         N  0.32745124  0.06376279  0.14310828    -0.78900
C45         C  0.32807351  0.06337112  0.09958889     0.81800
N46         N  0.35264509  0.09291019  0.07843910    -0.78900
C47         C  0.37713801  0.12240853  0.10012443     0.81900
N48         N  0.37744919  0.12220218  0.14345696    -0.80600
C49         C  0.36287360  0.25985505  0.16314465     0.79400
N50         N  0.39229472  0.26243278  0.14307421    -0.78900
C51         C  0.39220758  0.26001139  0.09973508     0.81800
N52         N  0.36245716  0.25300677  0.07716032    -0.78900
C53         C  0.33298507  0.24953775  0.09686999     0.81900
N54         N  0.33329817  0.25362575  0.13998020    -0.80600
C55         C  0.35046696  0.25269720  0.37581297     0.79400
N56         N  0.37548818  0.24671821  0.39600517    -0.78900
C57         C  0.37042594  0.23623163  0.43744006     0.81800
N58         N  0.34116339  0.23221889  0.45798894    -0.78900
C59         C  0.31679049  0.23902285  0.43916464     0.81900
N60         N  0.32122202  0.24943291  0.39751686    -0.80600
C61         C  0.19890614  0.09619081  0.38061256     0.79400
N62         N  0.20497280  0.12572974  0.40372571    -0.78900
C63         C  0.20915257  0.12610237  0.44682730     0.81800
N64         N  0.20594638  0.09675125  0.46656598    -0.78900
C65         C  0.19909752  0.06704822  0.44404791     0.81900
N66         N  0.19657777  0.06688398  0.40071959    -0.80600
C67         C  0.20641280  0.10821378  0.16797263     0.79400
N68         N  0.20967591  0.13747892  0.14630952    -0.78900
C69         C  0.22006032  0.14194379  0.10467076     0.81800
N70         N  0.22682940  0.11758292  0.08580161    -0.78900
C71         C  0.22277416  0.08827909  0.10628122     0.81900
N72         N  0.21231933  0.08317176  0.14772273    -0.80600
O73         O  0.22598007  0.29160060  0.47627533    -0.81000
O74         O  0.22832089  0.16133396  0.51010348    -0.81000
O75         O  0.26971125  0.25178321  0.45783253    -0.81000
O76         O  0.16542945  0.21360163  0.46090378    -0.80900
O77         O  0.28703394  0.22436253  0.50436247    -0.81100
O78         O  0.15761405  0.24712528  0.50672012    -0.81000
O79         O  0.19853835  0.17359155  0.46120927    -0.81000
O80         O  0.28600461  0.31995492  0.47959960    -0.81000
C81         C  0.25708669  0.31707806  0.46434444     1.08700
C82         C  0.21373085  0.15626107  0.47309769     1.08600
C83         C  0.28846773  0.23717781  0.46715741     1.08700
C84         C  0.14825215  0.22909188  0.47234890     1.08600
O85         O  0.16732608  0.23251907  0.06790912    -0.81000
O86         O  0.29760725  0.23028581  0.03360512    -0.78900
O87         O  0.24545459  0.29326058  0.08307373    -0.81000
O88         O  0.20707113  0.18885216  0.08599023    -0.81000
O89         O  0.23452584  0.17160916  0.03943153    -0.81000
O90         O  0.21173499  0.30100755  0.03745349    -0.81000
O91         O  0.13885815  0.17252814  0.06415618    -0.80900
O92         O  0.28539670  0.26003227  0.08255528    -0.81000
Co93       Co  0.19462588  0.25202008  0.01019891     1.51500
Co94       Co  0.25346823  0.20986359  0.99477650     1.51700
Co95       Co  0.27459592  0.28603729  0.03907138     1.51600
Co96       Co  0.18347398  0.19884535  0.03714678     1.51500
O97         O  0.23234029  0.23843458  0.02030140    -1.42900
C98         C  0.14175260  0.20138520  0.07960594     1.08700
C99         C  0.30275447  0.24488649  0.07061068     1.08700
C100        C  0.22997151  0.31047241  0.07168703     1.08700
C101        C  0.22176762  0.17018588  0.07665740     1.08700
O102        O  0.03098629  0.27409609  0.07618228    -0.81000
O103        O  0.39588600  0.16410005  0.04281712    -0.81000
O104        O  0.43930118  0.28071479  0.05009080    -0.81000
O105        O  0.51041623  0.20478774  0.09145572    -0.80900
O106        O  0.41768808  0.22718409  0.07418028    -0.81100
O107        O  0.04421587  0.22677457  0.04702386    -0.81000
O108        O  0.43668368  0.16837555  0.08870088    -0.81000
O109        O  0.51185274  0.31701182  0.04986482    -0.81000
C110        C  0.03244839  0.30377933  0.07776193     1.08700
C111        C  0.40426812  0.15345913  0.07662162     1.08600
C112        C  0.41984780  0.25712985  0.07643363     1.08700
C113        C  0.03403405  0.20829267  0.08085399     1.08600
O114        O  0.01627023  0.23158474  0.46618460    -0.81000
O115        O  0.38130783  0.20499119  0.49046000    -0.81000
O116        O  0.50966343  0.28906355  0.46283841    -0.81000
O117        O  0.43624861  0.14926625  0.50258178    -0.81000
O118        O  0.43332359  0.19066196  0.46565304    -0.81000
O119        O  0.06699738  0.29621020  0.49790223    -0.81000
O120        O  0.51071044  0.18741810  0.50606234    -0.80900
O121        O  0.42992158  0.24949085  0.46028199    -0.81000
Co122      Co  0.01857270  0.25011818  0.02008092     1.51500
Co123      Co  0.42686695  0.21347461  0.01817532     1.51700
Co124      Co  0.47553959  0.27993034  0.01005104     1.51600
Co125      Co  0.47452813  0.18181908  0.04493137     1.51500
O126        O  0.47526311  0.23038671  0.03632052    -1.42900
C127        C  0.02388357  0.20677635  0.46920758     1.08700
C128        C  0.39523464  0.22956810  0.46280377     1.08700
C129        C  0.05309303  0.30751456  0.47017570     1.08700
C130        C  0.42563252  0.15845602  0.46945809     1.08700
O131        O  0.22687404  0.44222761  0.07761993    -0.81000
O132        O  0.25354963  0.07736939  0.05278653    -0.81000
O133        O  0.30973334  0.02296838  0.04099646    -0.81000
O134        O  0.16595402  0.44035137  0.07726384    -0.80900
O135        O  0.26819581  0.02565924  0.07782961    -0.81100
O136        O  0.16217456  0.39177669  0.04578770    -0.81000
O137        O  0.20935180  0.02875354  0.08334372    -0.81000
O138        O  0.27375422  0.44790536  0.04404261    -0.81000
C139        C  0.25181062  0.43477534  0.07460816     1.08700
C140        C  0.22922147  0.06344205  0.08072481     1.08600
C141        C  0.30045475  0.03353265  0.07407643     1.08700
C142        C  0.15089014  0.40574707  0.07343922     1.08600
O143        O  0.18459640  0.42764733  0.46779502    -0.81000
O144        O  0.29516905  0.06309942  0.50112933    -0.81000
O145        O  0.26710132  0.45765062  0.45336949    -0.81000
O146        O  0.17834038  0.01979627  0.49342861    -0.81000
O147        O  0.23217383  0.04197397  0.47001018    -0.81000
O148        O  0.23200213  0.41467634  0.49698614    -0.81000
O149        O  0.14855630  0.44435465  0.49246167    -0.80900
O150        O  0.29050615  0.02235168  0.45493411    -0.81000
Co151      Co  0.20069400  0.43410286  0.02271592     1.51500
Co152      Co  0.24878482  0.03647978  0.02552132     1.51700
Co153      Co  0.27951938  0.48575858  0.00114274     1.51600
Co154      Co  0.17729740  0.47832428  0.03017556     1.51500
O155        O  0.22935070  0.48260162  0.00603969    -1.42900
C156        C  0.15485275  0.42603574  0.46613091     1.08700
C157        C  0.30565300  0.05472188  0.46719379     1.08700
C158        C  0.25040577  0.42486273  0.46310508     1.08700
C159        C  0.20210743  0.03952622  0.46742944     1.08700
C160        C  0.19926734  0.10480335  0.21307562    -0.19300
C161        C  0.19628392  0.10177566  0.25138387     0.04700
C162        C  0.19543760  0.09856303  0.29639020     0.06600
C163        C  0.19631429  0.09667791  0.33481299    -0.20200
C164        C  0.35383054  0.25978299  0.33067686    -0.19300
C165        C  0.35694167  0.26265825  0.29235994     0.04700
C166        C  0.36031648  0.26337563  0.24736348     0.06600
C167        C  0.36232419  0.26243833  0.20895373    -0.20200
C168        C  0.36506877  0.10520339  0.33267238    -0.19300
C169        C  0.36164688  0.10203341  0.29427650     0.04700
C170        C  0.35664314  0.09724126  0.24944086     0.06600
C171        C  0.35337237  0.09399268  0.21103793    -0.20200
C172        C  0.08390600  0.19593963  0.21597460    -0.19300
C173        C  0.08355165  0.19765849  0.25436572     0.04700
C174        C  0.08333446  0.20147937  0.29909585     0.06600
C175        C  0.08350659  0.20543872  0.33722336    -0.20200
C176        C  0.09245122  0.36878772  0.33294665    -0.19300
C177        C  0.09103834  0.36855958  0.29443681     0.04700
C178        C  0.09019936  0.36776771  0.24929777     0.06600
C179        C  0.08989246  0.36636758  0.21078600    -0.20200
C180        C  0.26300764  0.37514319  0.32795125    -0.19300
C181        C  0.26168261  0.37558983  0.28952912     0.04700
C182        C  0.25830938  0.37588042  0.24472965     0.06600
C183        C  0.25453051  0.37571170  0.20656270    -0.20200
C184        C  0.25820180  0.38133978  0.65953900     0.79400
N185        N  0.25140052  0.35195511  0.63561562    -0.78900
C186        C  0.24951773  0.35306001  0.59241838     0.81800
N187        N  0.25421259  0.38356889  0.57345934    -0.78900
C188        C  0.26116794  0.41312882  0.59705062     0.81900
N189        N  0.26239078  0.41175336  0.64036062    -0.80600
C190        C  0.25167245  0.36603309  0.87232607     0.79400
N191        N  0.24956993  0.39235914  0.89472370    -0.78900
C192        C  0.24568782  0.38980695  0.93779207     0.81800
N193        N  0.24483156  0.36164036  0.95813691    -0.78900
C194        C  0.24745992  0.33566691  0.93630881     0.81900
N195        N  0.25031895  0.33734917  0.89304809    -0.80600
C196        C  0.09279682  0.35976242  0.87824833     0.79400
N197        N  0.06961855  0.33021489  0.90064532    -0.78900
C198        C  0.07177037  0.33078179  0.94398611     0.81800
N199        N  0.09629713  0.36098032  0.96447729    -0.78900
C200        C  0.11872841  0.39069201  0.94223342     0.81900
N201        N  0.11767162  0.38976458  0.89899396    -0.80600
C202        C  0.09890138  0.36549704  0.66564372     0.79400
N203        N  0.12847359  0.38876348  0.64333990    -0.78900
C204        C  0.12795181  0.38674101  0.59998746     0.81800
N205        N  0.09778382  0.36226261  0.57940561    -0.78900
C206        C  0.06805453  0.33975504  0.60155509     0.81900
N207        N  0.06892983  0.34067567  0.64479607    -0.80600
C208        C  0.09250078  0.20664326  0.67172582     0.79400
N209        N  0.06621657  0.20885336  0.64932190    -0.78900
C210        C  0.06887471  0.21295001  0.60627331     0.81800
N211        N  0.09708680  0.21390620  0.58596639    -0.78900
C212        C  0.12301137  0.21117834  0.60778157     0.81900
N213        N  0.12123224  0.20809408  0.65102025    -0.80600
C214        C  0.07728477  0.19986180  0.88451673     0.79400
N215        N  0.10674086  0.20683438  0.90843302    -0.78900
C216        C  0.10577401  0.20911947  0.95160330     0.81800
N217        N  0.07534095  0.20462083  0.97053256    -0.78900
C218        C  0.04571985  0.19748390  0.94696063     0.81900
N219        N  0.04693755  0.19586209  0.90367317    -0.80600
C220        C  0.37070793  0.10463897  0.87726708     0.79400
N221        N  0.39900028  0.13143005  0.89876231    -0.78900
C222        C  0.39749353  0.13369781  0.94193899     0.81800
N223        N  0.36739220  0.11006015  0.96302307    -0.78900
C224        C  0.33899814  0.08380814  0.94147000     0.81900
N225        N  0.34101509  0.08078991  0.89861908    -0.80600
C226        C  0.35479281  0.08784073  0.66616927     0.79400
N227        N  0.32794390  0.05952538  0.64477212    -0.78900
C228        C  0.32548825  0.06103807  0.60161464     0.81800
N229        N  0.34898346  0.09117940  0.58046412    -0.78900
C230        C  0.37528136  0.11959957  0.60193611     0.81900
N231        N  0.37848291  0.11756695  0.64475327    -0.80600
C232        C  0.36412410  0.27106754  0.66093981     0.79400
N233        N  0.38803508  0.26539955  0.63827399    -0.78900
C234        C  0.38679357  0.26481417  0.59487915     0.81800
N235        N  0.36117766  0.26949425  0.57424510    -0.78900
C236        C  0.33657229  0.27433905  0.59666256     0.81900
N237        N  0.33791678  0.27456190  0.64014577    -0.80600
C238        C  0.36432257  0.26695926  0.87573705     0.79400
N239        N  0.38506759  0.25666390  0.89846988    -0.78900
C240        C  0.38088224  0.25222159  0.94151939     0.81800
N241        N  0.35682632  0.25916040  0.96159792    -0.78900
C242        C  0.33667273  0.27022393  0.93938609     0.81900
N243        N  0.33964475  0.27298522  0.89616768    -0.80600
C244        C  0.18724393  0.09438012  0.88267810     0.79400
N245        N  0.18391723  0.12065887  0.90353276    -0.78900
C246        C  0.18434850  0.12205212  0.94702601     0.81800
N247        N  0.18922599  0.09743033  0.96936903    -0.78900
C248        C  0.19375668  0.07176308  0.94867233     0.81900
N249        N  0.19296760  0.07046663  0.90528030    -0.80600
C250        C  0.19103314  0.09394011  0.66787849     0.79400
N251        N  0.18510304  0.11867829  0.64742039    -0.78900
C252        C  0.18836473  0.12199115  0.60426274     0.81800
N253        N  0.19981897  0.10210917  0.58216780    -0.78900
C254        C  0.20665269  0.07798230  0.60228453     0.81900
N255        N  0.20171204  0.07346347  0.64524901    -0.80600
O256        O  0.21967369  0.27498625  0.95677578    -0.81000
O257        O  0.21181674  0.18483426  0.95570905    -0.81000
O258        O  0.31151968  0.28636805  0.99744003    -0.81000
O259        O  0.15302243  0.20198943  0.98512877    -0.80900
O260        O  0.27551684  0.24681383  0.95092647    -0.81100
O261        O  0.15319301  0.25376827  0.99230237    -0.81000
O262        O  0.17574837  0.15344980  0.00607118    -0.81000
O263        O  0.26656515  0.31517596  0.99432762    -0.81000
C264        C  0.24611110  0.30640417  0.96139276     1.08700
C265        C  0.18866395  0.15463944  0.96926160     1.08600
C266        C  0.30657082  0.27050201  0.96143714     1.08700
C267        C  0.13866859  0.22212641  0.97746124     1.08600
O268        O  0.18369059  0.23898400  0.58733576    -0.81000
O269        O  0.27379711  0.24696640  0.58809211    -0.78900
O270        O  0.25670111  0.30592078  0.55867674    -0.81000
O271        O  0.17222336  0.14727604  0.54628977    -0.81000
O272        O  0.21180962  0.18318870  0.59284906    -0.81000
O273        O  0.20476058  0.30551063  0.55201154    -0.81000
O274        O  0.14346424  0.19224427  0.54962469    -0.80900
O275        O  0.30514896  0.28309428  0.53773683    -0.81000
Co276      Co  0.20659001  0.26417685  0.53395661     1.51500
Co277      Co  0.24876216  0.20535896  0.54901100     1.51700
Co278      Co  0.25973913  0.27538240  0.50667629     1.51600
Co279      Co  0.17257452  0.18431209  0.50478326     1.51500
O280        O  0.22018517  0.22652562  0.52360197    -1.42900
C281        C  0.15226484  0.21257165  0.58266697     1.08700
C282        C  0.30398443  0.27011709  0.57451191     1.08700
C283        C  0.23650184  0.32016917  0.56656224     1.08700
C284        C  0.18810905  0.15215034  0.58227983     1.08700
O285        O  0.03596554  0.28079623  0.57738025    -0.81000
O286        O  0.39314689  0.16094504  0.54436196    -0.81000
O287        O  0.43258855  0.27888459  0.54415644    -0.81000
O288        O  0.50749284  0.20502726  0.59463332    -0.80900
O289        O  0.40787351  0.22561660  0.57041551    -0.81100
O290        O  0.05194791  0.23564687  0.54741201    -0.81000
O291        O  0.43399271  0.16701170  0.59117816    -0.81000
O292        O  0.50561400  0.31491879  0.54712173    -0.81000
C293        C  0.03834729  0.31084991  0.57821915     1.08700
C294        C  0.40174016  0.15114852  0.57862899     1.08600
C295        C  0.41087918  0.25631017  0.56983718     1.08700
C296        C  0.04202985  0.21638276  0.58069710     1.08600
O297        O  0.00928742  0.22263285  0.96568000    -0.81000
O298        O  0.38625247  0.21488904  0.99401446    -0.81000
O299        O  0.51473713  0.29294378  0.96430361    -0.81000
O300        O  0.43837643  0.15243460  0.99926759    -0.81000
O301        O  0.43362086  0.19385935  0.96363323    -0.81000
O302        O  0.06165938  0.28744537  0.99672694    -0.81000
O303        O  0.51239609  0.18796197  0.00243018    -0.80900
O304        O  0.43639417  0.25550683  0.96341278    -0.81000
Co305      Co  0.02460781  0.25782509  0.52103297     1.51500
Co306      Co  0.42224419  0.20991033  0.51786586     1.51700
Co307      Co  0.46948915  0.27618999  0.50737848     1.51600
Co308      Co  0.47196150  0.18070711  0.54791180     1.51500
O309        O  0.47006843  0.22834980  0.53846189    -1.42900
C310        C  0.01505974  0.19654077  0.96928445     1.08700
C311        C  0.40189750  0.24015174  0.96723344     1.08700
C312        C  0.04811213  0.29958419  0.96960158     1.08700
C313        C  0.42692615  0.16180768  0.96697607     1.08700
O314        O  0.23605673  0.44960817  0.57831684    -0.81000
O315        O  0.24456055  0.07288675  0.55032362    -0.81000
O316        O  0.30648116  0.02021000  0.54426158    -0.81000
O317        O  0.17349809  0.44503536  0.57824807    -0.80900
O318        O  0.26523003  0.02503194  0.58017655    -0.81100
O319        O  0.17136413  0.39703628  0.54732083    -0.81000
O320        O  0.20354001  0.02259271  0.58023471    -0.81000
O321        O  0.28293658  0.45690447  0.54309060    -0.81000
C322        C  0.26214014  0.44382532  0.57471736     1.08700
C323        C  0.21898385  0.05711342  0.57668833     1.08600
C324        C  0.29724471  0.03162399  0.57668901     1.08700
C325        C  0.15913454  0.41050019  0.57441737     1.08600
O326        O  0.17774375  0.42282223  0.96632638    -0.81000
O327        O  0.29768389  0.06573534  0.99901365    -0.81000
O328        O  0.26006450  0.44958822  0.95414536    -0.81000
O329        O  0.17987458  0.02611580  0.99956385    -0.81000
O330        O  0.23294629  0.05058029  0.97285303    -0.81000
O331        O  0.22286360  0.40673666  0.99647315    -0.81000
O332        O  0.14159672  0.43916145  0.99151509    -0.80900
O333        O  0.29188612  0.02493735  0.95232431    -0.81000
Co334      Co  0.20853924  0.44018142  0.52391170     1.51500
Co335      Co  0.24574116  0.03226360  0.52580411     1.51700
Co336      Co  0.28644585  0.49372381  0.50012350     1.51600
Co337      Co  0.18353241  0.48300407  0.53159486     1.51500
O338        O  0.23572690  0.48863585  0.50654710    -1.42900
C339        C  0.14768813  0.42045521  0.96545791     1.08700
C340        C  0.30754528  0.05720875  0.96477322     1.08700
C341        C  0.24223174  0.41666229  0.96328317     1.08700
C342        C  0.20230203  0.04767141  0.97364445     1.08700
C343        C  0.18831568  0.09130725  0.71386080    -0.19300
C344        C  0.18699154  0.09088105  0.75251509     0.04700
C345        C  0.18637223  0.09169694  0.79787761     0.06600
C346        C  0.18650077  0.09290912  0.83654794    -0.20200
C347        C  0.36673050  0.26932599  0.82973129    -0.19300
C348        C  0.36713786  0.27057966  0.79107821     0.04700
C349        C  0.36647091  0.27135727  0.74572687     0.06600
C350        C  0.36544481  0.27148275  0.70706147    -0.20200
C351        C  0.37146349  0.10128327  0.83188193    -0.19300
C352        C  0.36855136  0.09640225  0.79387389     0.04700
C353        C  0.36290022  0.09042573  0.74959246     0.06600
C354        C  0.35816696  0.08723769  0.71156827    -0.20200
C355        C  0.08989901  0.20327940  0.71737697    -0.19300
C356        C  0.08657560  0.20109402  0.75566425     0.04700
C357        C  0.08228509  0.19944043  0.80046185     0.06600
C358        C  0.07921805  0.19898365  0.83877160    -0.20200
C359        C  0.09242652  0.35911449  0.83258538    -0.19300
C360        C  0.09439669  0.36078001  0.79428483     0.04700
C361        C  0.09762133  0.36387432  0.74960773     0.06600
C362        C  0.09942946  0.36581203  0.71131046    -0.20200
C363        C  0.25475387  0.36852097  0.82665825    -0.19300
C364        C  0.25673339  0.37181718  0.78836760     0.04700
C365        C  0.25826923  0.37614134  0.74358376     0.06600
C366        C  0.25879207  0.37928588  0.70528530    -0.20200
C367        C  0.24664504  0.87456421  0.15639010     0.79400
N368        N  0.23915589  0.84475711  0.13286817    -0.78900
C369        C  0.23705152  0.84544276  0.08961394     0.81800
N370        N  0.24228751  0.87597886  0.07017590    -0.78900
C371        C  0.24984984  0.90593738  0.09329839     0.81900
N372        N  0.25132936  0.90499383  0.13667244    -0.80600
C373        C  0.24608448  0.86562720  0.37044295     0.79400
N374        N  0.24244868  0.89123405  0.39252317    -0.78900
C375        C  0.23894249  0.88896650  0.43571779     0.81800
N376        N  0.23983094  0.86186653  0.45648540    -0.78900
C377        C  0.24453958  0.83707322  0.43507028     0.81900
N378        N  0.24715282  0.83836960  0.39176338    -0.80600
C379        C  0.08396027  0.87496372  0.37844542     0.79400
N380        N  0.05991336  0.84500985  0.39984519    -0.78900
C381        C  0.06403099  0.84273869  0.44267281     0.81800
N382        N  0.09147603  0.87039705  0.46358431    -0.78900
C383        C  0.11486021  0.90040806  0.44277247     0.81900
N384        N  0.11171264  0.90247419  0.39986976    -0.80600
C385        C  0.08662397  0.87690629  0.16498068     0.79400
N386        N  0.11746826  0.89812224  0.14323984    -0.78900
C387        C  0.11909190  0.89263066  0.10063441     0.81800
N388        N  0.08980054  0.86674277  0.08014503    -0.78900
C389        C  0.05882137  0.84635488  0.10127269     0.81900
N390        N  0.05739982  0.85076447  0.14403088    -0.80600
C391        C  0.08432710  0.70857553  0.16848623     0.79400
N392        N  0.06026984  0.71444593  0.14633021    -0.78900
C393        C  0.06238843  0.71740836  0.10321500     0.81800
N394        N  0.08773160  0.71321197  0.08231959    -0.78900
C395        C  0.11143320  0.70665774  0.10406187     0.81900
N396        N  0.11038070  0.70513186  0.14746187    -0.80600
C397        C  0.07105410  0.71002495  0.38081155     0.79400
N398        N  0.10051789  0.71417485  0.40241627    -0.78900
C399        C  0.10231556  0.71751302  0.44554816     0.81800
N400        N  0.07374598  0.71541747  0.46712512    -0.78900
C401        C  0.04373156  0.71057008  0.44576457     0.81900
N402        N  0.04270862  0.70856547  0.40235355    -0.80600
C403        C  0.36779676  0.61673822  0.37989041     0.79400
N404        N  0.39642266  0.64295390  0.40176515    -0.78900
C405        C  0.39649297  0.64251860  0.44528947     0.81800
N406        N  0.36757349  0.61703812  0.46634813    -0.78900
C407        C  0.33894751  0.59149363  0.44459056     0.81900
N408        N  0.33940229  0.59096182  0.40136250    -0.80600
C409        C  0.34751366  0.59487069  0.16855878     0.79400
N410        N  0.32239759  0.56525858  0.14697019    -0.78900
C411        C  0.32148952  0.56549619  0.10345364     0.81800
N412        N  0.34484395  0.59573891  0.08216975    -0.78900
C413        C  0.36943847  0.62536388  0.10380567     0.81900
N414        N  0.37102229  0.62452071  0.14692187    -0.80600
C415        C  0.34901268  0.76698329  0.16057746     0.79400
N416        N  0.37572183  0.76510413  0.13914619    -0.78900
C417        C  0.37663945  0.76647638  0.09575052     0.81800
N418        N  0.35021838  0.76887914  0.07387862    -0.78900
C419        C  0.32285877  0.76978441  0.09495876     0.81900
N420        N  0.32217938  0.76833341  0.13842153    -0.80600
C421        C  0.34129343  0.74996327  0.37422896     0.79400
N422        N  0.36863173  0.74883393  0.39605534    -0.78900
C423        C  0.36410509  0.73931327  0.43791520     0.81800
N424        N  0.33288656  0.73115337  0.45713759    -0.78900
C425        C  0.30615504  0.73320249  0.43660356     0.81900
N426        N  0.31027797  0.74286153  0.39480021    -0.80600
C427        C  0.18931483  0.58761221  0.37633007     0.79400
N428        N  0.19160938  0.61609203  0.39890010    -0.78900
C429        C  0.19691339  0.61784863  0.44196695     0.81800
N430        N  0.19882786  0.59101269  0.46196923    -0.78900
C431        C  0.19577414  0.56244602  0.44005604     0.81900
N432        N  0.19189050  0.56088792  0.39690098    -0.80600
C433        C  0.18161265  0.58702081  0.16253525     0.79400
N434        N  0.17418235  0.61087850  0.14246222    -0.78900
C435        C  0.17718949  0.61445735  0.09932637     0.81800
N436        N  0.18993900  0.59578697  0.07689570    -0.78900
C437        C  0.19819742  0.57253496  0.09682591     0.81900
N438        N  0.19355217  0.56779950  0.13969479    -0.80600
O439        O  0.21284971  0.78241332  0.47141235    -0.81000
O440        O  0.21370173  0.65253241  0.50531730    -0.81000
O441        O  0.25679198  0.74276744  0.45358049    -0.81000
O442        O  0.14970366  0.70433778  0.45695027    -0.80900
O443        O  0.27354656  0.71480500  0.50003565    -0.81100
O444        O  0.14498574  0.73994273  0.50275263    -0.81000
O445        O  0.18211776  0.66297065  0.45680549    -0.81000
O446        O  0.27270825  0.81117817  0.47554453    -0.81000
C447        C  0.24381920  0.80834551  0.46017847     1.08700
C448        C  0.19886840  0.64699744  0.46840834     1.08600
C449        C  0.27586061  0.72848062  0.46319718     1.08700
C450        C  0.13422130  0.72148724  0.46884551     1.08600
O451        O  0.17159826  0.73037733  0.08407986    -0.81000
O452        O  0.26022330  0.73949846  0.08393396    -0.78900
O453        O  0.24392145  0.79846020  0.05490175    -0.81000
O454        O  0.15912792  0.63908963  0.04241790    -0.81000
O455        O  0.19879666  0.67544096  0.08842171    -0.81000
O456        O  0.19152229  0.79718266  0.05067320    -0.81000
O457        O  0.13011970  0.68456400  0.04650768    -0.80900
O458        O  0.29178692  0.77592911  0.03379745    -0.81000
Co459      Co  0.19385654  0.75640725  0.03113027     1.51500
Co460      Co  0.23574655  0.69788656  0.04466564     1.51700
Co461      Co  0.24649502  0.76800197  0.00240507     1.51600
Co462      Co  0.15892285  0.67600864  0.00124665     1.51500
O463        O  0.20707766  0.71875654  0.01899584    -1.42900
C464        C  0.13959108  0.70518650  0.07938330     1.08700
C465        C  0.29031013  0.76334701  0.07089973     1.08700
C466        C  0.22359064  0.81227744  0.06408134     1.08700
C467        C  0.17558350  0.64419076  0.07798060     1.08700
O468        O  0.02999468  0.78793613  0.07509791    -0.81000
O469        O  0.38710765  0.66646282  0.04601097    -0.81000
O470        O  0.42417177  0.78365903  0.04643801    -0.81000
O471        O  0.50206153  0.71389731  0.09507401    -0.80900
O472        O  0.40099567  0.73023196  0.07183591    -0.81100
O473        O  0.04642597  0.74263568  0.04534913    -0.81000
O474        O  0.42794927  0.67418288  0.09362261    -0.81000
O475        O  0.49751603  0.82097050  0.04954738    -0.81000
C476        C  0.02979517  0.81679450  0.07773946     1.08700
C477        C  0.39574382  0.65727291  0.08066729     1.08600
C478        C  0.40272224  0.76031723  0.07166025     1.08700
C479        C  0.03663102  0.72345260  0.07878742     1.08600
O480        O  0.00612632  0.73436391  0.46615923    -0.81000
O481        O  0.37886284  0.71366278  0.49402465    -0.81000
O482        O  0.50587377  0.80079455  0.46437276    -0.81000
O483        O  0.43600583  0.66112769  0.50426906    -0.81000
O484        O  0.43248516  0.70235338  0.46766095    -0.81000
O485        O  0.05475585  0.80051489  0.49593843    -0.81000
O486        O  0.50981138  0.69984022  0.50639937    -0.80900
O487        O  0.42550439  0.75931212  0.46251610    -0.81000
Co488      Co  0.01819149  0.76432606  0.01917084     1.51500
Co489      Co  0.41580675  0.71536710  0.01917854     1.51700
Co490      Co  0.46171150  0.78239628  0.00919435     1.51600
Co491      Co  0.46585109  0.68793951  0.04992582     1.51500
O492        O  0.46382264  0.73520520  0.03940695    -1.42900
C493        C  0.01394259  0.70970856  0.47044270     1.08700
C494        C  0.39107176  0.73724267  0.46518475     1.08700
C495        C  0.04045644  0.81099294  0.46780851     1.08700
C496        C  0.42554943  0.67036308  0.47107705     1.08700
O497        O  0.22790237  0.94558994  0.07561223    -0.81000
O498        O  0.23824788  0.56993050  0.04618283    -0.81000
O499        O  0.30607443  0.52305306  0.04741546    -0.81000
O500        O  0.16984440  0.94898099  0.08075005    -0.80900
O501        O  0.26218653  0.52580433  0.07969973    -0.81100
O502        O  0.16014997  0.89949092  0.04616754    -0.81000
O503        O  0.19863522  0.51870361  0.07583491    -0.81000
O504        O  0.27179055  0.94845499  0.03773719    -0.81000
C505        C  0.25192637  0.93698041  0.07034037     1.08700
C506        C  0.21224508  0.55304478  0.07165031     1.08600
C507        C  0.29493160  0.53446839  0.07816085     1.08700
C508        C  0.15129889  0.91451976  0.07522389     1.08600
O509        O  0.17355356  0.92554581  0.46834373    -0.81000
O510        O  0.29686026  0.57008172  0.50109184    -0.81000
O511        O  0.25384320  0.94863122  0.45175598    -0.81000
O512        O  0.17931410  0.51638395  0.49008375    -0.81000
O513        O  0.23367620  0.54347772  0.46765240    -0.81000
O514        O  0.21739037  0.90634870  0.49534963    -0.81000
O515        O  0.14173218  0.94722436  0.49377726    -0.80900
O516        O  0.29730819  0.53080201  0.45620944    -0.81000
Co517      Co  0.19999008  0.94042855  0.02227897     1.51500
Co518      Co  0.24267566  0.53054591  0.02379370     1.51700
Co519      Co  0.27834516  0.98708339  0.99575316     1.51600
Co520      Co  0.18268197  0.98919595  0.03622969     1.51500
O521        O  0.23054364  0.98869784  0.00510162    -1.42900
C522        C  0.14546893  0.92735692  0.46708276     1.08700
C523        C  0.30920991  0.56298880  0.46787937     1.08700
C524        C  0.23572650  0.91583803  0.46124163     1.08700
C525        C  0.20227591  0.53741279  0.46415729     1.08700
C526        C  0.17994090  0.58452090  0.20837809    -0.19300
C527        C  0.18034049  0.58405976  0.24695035     0.04700
C528        C  0.18240381  0.58488958  0.29211829     0.06600
C529        C  0.18513678  0.58614364  0.33059374    -0.20200
C530        C  0.34445329  0.75700852  0.32893291    -0.19300
C531        C  0.34605477  0.76089878  0.29054692     0.04700
C532        C  0.34726280  0.76385277  0.24532380     0.06600
C533        C  0.34808037  0.76553744  0.20669099    -0.20200
C534        C  0.36716370  0.61500873  0.33406788    -0.19300
C535        C  0.36261827  0.60941529  0.29613177     0.04700
C536        C  0.35527116  0.60114180  0.25221628     0.06600
C537        C  0.34988400  0.59576002  0.21433863    -0.20200
C538        C  0.08219179  0.70677882  0.21419884    -0.19300
C539        C  0.07838156  0.70622411  0.25236411     0.04700
C540        C  0.07339156  0.70655087  0.29686623     0.06600
C541        C  0.07059866  0.70766106  0.33506647    -0.20200
C542        C  0.08171097  0.87678140  0.33272999    -0.19300
C543        C  0.08205260  0.87876094  0.29424416     0.04700
C544        C  0.08383110  0.88042420  0.24912076     0.06600
C545        C  0.08548416  0.88020730  0.21062680    -0.20200
C546        C  0.24762749  0.86690407  0.32447829    -0.19300
C547        C  0.24809854  0.86858933  0.28592843     0.04700
C548        C  0.24815375  0.87109357  0.24080268     0.06600
C549        C  0.24781077  0.87314280  0.20231437    -0.20200
C550        C  0.24980506  0.87252432  0.65694480     0.79400
N551        N  0.24183694  0.84282206  0.63279336    -0.78900
C552        C  0.23746854  0.84348192  0.58979981     0.81800
N553        N  0.24098113  0.87368140  0.57145096    -0.78900
C554        C  0.24904615  0.90338414  0.59515674     0.81900
N555        N  0.25286035  0.90266082  0.63818503    -0.80600
C556        C  0.25001873  0.86883740  0.87081522     0.79400
N557        N  0.24516088  0.89422348  0.89166055    -0.78900
C558        C  0.23886058  0.89132715  0.93441568     0.81800
N559        N  0.23802618  0.86363737  0.95598089    -0.78900
C560        C  0.24393953  0.83904574  0.93581622     0.81900
N561        N  0.24972349  0.84130110  0.89300764    -0.80600
C562        C  0.08719074  0.87863762  0.87900368     0.79400
N563        N  0.06414614  0.84853068  0.90088424    -0.78900
C564        C  0.06769341  0.84731183  0.94400813     0.81800
N565        N  0.09351504  0.87632418  0.96495911    -0.78900
C566        C  0.11596258  0.90666257  0.94386328     0.81900
N567        N  0.11361295  0.90746905  0.90049631    -0.80600
C568        C  0.08192790  0.87341530  0.66363242     0.79400
N569        N  0.11312888  0.89348300  0.64202760    -0.78900
C570        C  0.11438788  0.88888589  0.59913603     0.81800
N571        N  0.08421013  0.86502753  0.57800421    -0.78900
C572        C  0.05271353  0.84571617  0.59884365     0.81900
N573        N  0.05186381  0.84905082  0.64205709    -0.80600
C574        C  0.08328156  0.70757623  0.66821184     0.79400
N575        N  0.05892558  0.71357143  0.64698475    -0.78900
C576        C  0.06088539  0.71755347  0.60400269     0.81800
N577        N  0.08653700  0.71427529  0.58227631    -0.78900
C578        C  0.11057649  0.70759740  0.60324493     0.81900
N579        N  0.10946317  0.70496219  0.64649432    -0.80600
C580        C  0.07324190  0.70984106  0.88015421     0.79400
N581        N  0.10247454  0.71404542  0.90234267    -0.78900
C582        C  0.10412092  0.71838884  0.94535161     0.81800
N583        N  0.07573789  0.71729953  0.96613889    -0.78900
C584        C  0.04606553  0.71248819  0.94413109     0.81900
N585        N  0.04506011  0.70934818  0.90089612    -0.80600
C586        C  0.36427814  0.60919364  0.88092949     0.79400
N587        N  0.39216516  0.63595319  0.90295146    -0.78900
C588        C  0.39173059  0.63579617  0.94633131     0.81800
N589        N  0.36291651  0.60993851  0.96722516    -0.78900
C590        C  0.33489500  0.58373716  0.94524690     0.81900
N591        N  0.33589473  0.58302676  0.90203703    -0.80600
C592        C  0.35274599  0.59944057  0.66868866     0.79400
N593        N  0.32756986  0.57033232  0.64666834    -0.78900
C594        C  0.32705020  0.57116654  0.60332342     0.81800
N595        N  0.35074564  0.60134439  0.58250084    -0.78900
C596        C  0.37544128  0.63049599  0.60445706     0.81900
N597        N  0.37680750  0.62926115  0.64762653    -0.80600
C598        C  0.35090742  0.76830465  0.66031189     0.79400
N599        N  0.37861515  0.76817195  0.63920556    -0.78900
C600        C  0.37967506  0.76941562  0.59584149     0.81800
N601        N  0.35225892  0.76983090  0.57363284    -0.78900
C602        C  0.32389694  0.76901965  0.59450145     0.81900
N603        N  0.32324640  0.76779357  0.63794500    -0.80600
C604        C  0.33998004  0.74932601  0.87331584     0.79400
N605        N  0.36653875  0.74660164  0.89484138    -0.78900
C606        C  0.36170477  0.73699289  0.93662784     0.81800
N607        N  0.33114707  0.73044810  0.95606826    -0.78900
C608        C  0.30525185  0.73406097  0.93592335     0.81900
N609        N  0.30950040  0.74374184  0.89409336    -0.80600
C610        C  0.18904499  0.58781193  0.87686201     0.79400
N611        N  0.19274700  0.61666691  0.89978047    -0.78900
C612        C  0.19761612  0.61784363  0.94286984     0.81800
N613        N  0.19770489  0.58985173  0.96267914    -0.78900
C614        C  0.19317062  0.56074892  0.94028719     0.81900
N615        N  0.18970422  0.55995123  0.89709244    -0.80600
C616        C  0.18275579  0.58888025  0.66300407     0.79400
N617        N  0.17362542  0.61131171  0.64245412    -0.78900
C618        C  0.17653516  0.61460809  0.59929374     0.81800
N619        N  0.19093229  0.59722376  0.57732009    -0.78900
C620        C  0.20090610  0.57543767  0.59771833     0.81900
N621        N  0.19633233  0.57088423  0.64061855    -0.80600
O622        O  0.21245234  0.78493036  0.97396551    -0.81000
O623        O  0.21573690  0.65376166  0.00581280    -0.81000
O624        O  0.25665879  0.74463778  0.95353474    -0.81000
O625        O  0.15126452  0.70523078  0.95759913    -0.80900
O626        O  0.27412197  0.71733801  0.00015098    -0.81100
O627        O  0.14517178  0.73967575  0.00410560    -0.81000
O628        O  0.18410123  0.66401639  0.95725990    -0.81000
O629        O  0.27241567  0.81295952  0.97550985    -0.81000
C630        C  0.24329505  0.81056190  0.96163017     1.08700
C631        C  0.20049350  0.64768500  0.96909583     1.08600
C632        C  0.27575577  0.73041483  0.96306337     1.08700
C633        C  0.13541681  0.72201254  0.96951605     1.08600
O634        O  0.17079732  0.73107115  0.58264804    -0.81000
O635        O  0.26084708  0.73766769  0.58384863    -0.78900
O636        O  0.24375112  0.79612327  0.55522724    -0.81000
O637        O  0.15745202  0.63841251  0.54239966    -0.81000
O638        O  0.19748348  0.67514872  0.58776899    -0.81000
O639        O  0.19287414  0.79751782  0.54748206    -0.81000
O640        O  0.12901465  0.68468648  0.54604540    -0.80900
O641        O  0.29197172  0.77395195  0.53335866    -0.81000
Co642      Co  0.19374160  0.75572656  0.52920005     1.51500
Co643      Co  0.23478961  0.69631150  0.54431296     1.51700
Co644      Co  0.24655563  0.76622068  0.50242558     1.51600
Co645      Co  0.15746125  0.67532616  0.50095145     1.51500
O646        O  0.20632322  0.71744720  0.51855584    -1.42900
C647        C  0.13863435  0.70603040  0.57823947     1.08700
C648        C  0.29088237  0.76147254  0.57039337     1.08700
C649        C  0.22410809  0.81090545  0.56329173     1.08700
C650        C  0.17417936  0.64384102  0.57783554     1.08700
O651        O  0.02412942  0.78672296  0.57507093    -0.81000
O652        O  0.39296552  0.67135504  0.54675009    -0.81000
O653        O  0.42788688  0.78759970  0.54691538    -0.81000
O654        O  0.50778066  0.71751695  0.59503120    -0.80900
O655        O  0.40619454  0.73472895  0.57347904    -0.81100
O656        O  0.04331100  0.74234723  0.54712573    -0.81000
O657        O  0.43413149  0.67830336  0.59346632    -0.81000
O658        O  0.50176012  0.82550332  0.54940230    -0.81000
C659        C  0.02372966  0.81554431  0.57540590     1.08700
C660        C  0.40180703  0.66207772  0.58118311     1.08600
C661        C  0.40675068  0.76425769  0.57243732     1.08700
C662        C  0.03437290  0.72336084  0.58063211     1.08600
O663        O  0.00989080  0.73768210  0.96450570    -0.81000
O664        O  0.37452858  0.70925523  0.99191877    -0.81000
O665        O  0.50183318  0.79630147  0.96403940    -0.81000
O666        O  0.43043182  0.65564057  0.00563724    -0.81000
O667        O  0.42721856  0.69621825  0.96720052    -0.81000
O668        O  0.05973993  0.80348649  0.99534471    -0.81000
O669        O  0.50339064  0.69393145  0.00703665    -0.80900
O670        O  0.42214894  0.75512152  0.96183914    -0.81000
Co671      Co  0.01350682  0.76194056  0.52013706     1.51500
Co672      Co  0.42084349  0.72041170  0.52041307     1.51700
Co673      Co  0.46570756  0.78656804  0.50960029     1.51600
Co674      Co  0.47166074  0.69267360  0.54926930     1.51500
O675        O  0.46880062  0.73985810  0.54030180    -1.42900
C676        C  0.01636137  0.71204386  0.96807780     1.08700
C677        C  0.38766236  0.73338997  0.96371176     1.08700
C678        C  0.04500553  0.81512582  0.96911175     1.08700
C679        C  0.42022615  0.66425964  0.97186050     1.08700
O680        O  0.22537809  0.94145647  0.57780051    -0.81000
O681        O  0.24203868  0.57464104  0.54711843    -0.81000
O682        O  0.31242700  0.53076478  0.54612870    -0.81000
O683        O  0.16593627  0.94429765  0.57918190    -0.80900
O684        O  0.26808273  0.53172394  0.57977631    -0.81100
O685        O  0.15761362  0.89415514  0.54757979    -0.81000
O686        O  0.20434104  0.52306673  0.57742073    -0.81000
O687        O  0.27064833  0.94625052  0.54073304    -0.81000
C688        C  0.25045858  0.93424980  0.57301938     1.08700
C689        C  0.21647366  0.55713655  0.57294622     1.08600
C690        C  0.30089086  0.54084744  0.57765882     1.08700
C691        C  0.14751232  0.90978282  0.57455929     1.08600
O692        O  0.17504424  0.93189264  0.96736219    -0.81000
O693        O  0.29206516  0.56317393  0.00089616    -0.81000
O694        O  0.25410600  0.95145675  0.94912772    -0.81000
O695        O  0.17431813  0.51246422  0.98830947    -0.81000
O696        O  0.22910611  0.53881153  0.96713011    -0.81000
O697        O  0.21746887  0.91002816  0.99310724    -0.81000
O698        O  0.14400792  0.95310853  0.99639175    -0.80900
O699        O  0.29240851  0.52316933  0.95703373    -0.81000
Co700      Co  0.19798434  0.93533885  0.52397603     1.51500
Co701      Co  0.24793583  0.53612126  0.52430840     1.51700
Co702      Co  0.27694730  0.98431702  0.49844821     1.51600
Co703      Co  0.17899537  0.98354472  0.53350710     1.51500
O704        O  0.22853222  0.98386622  0.50720577    -1.42900
C705        C  0.14700156  0.93375389  0.96795885     1.08700
C706        C  0.30466115  0.55550983  0.96833997     1.08700
C707        C  0.23568604  0.91878901  0.95898861     1.08700
C708        C  0.19815338  0.53413615  0.96357623     1.08700
C709        C  0.18117912  0.58678145  0.70886275    -0.19300
C710        C  0.18150636  0.58635584  0.74743041     0.04700
C711        C  0.18323790  0.58669309  0.79259510     0.06600
C712        C  0.18550387  0.58720324  0.83109080    -0.20200
C713        C  0.34349264  0.75655156  0.82814502    -0.19300
C714        C  0.34592573  0.76082161  0.78988506     0.04700
C715        C  0.34820766  0.76439965  0.74483201     0.06600
C716        C  0.34967466  0.76657634  0.70630563    -0.20200
C717        C  0.36427353  0.60826842  0.83531256    -0.19300
C718        C  0.36175700  0.60540210  0.79707353     0.04700
C719        C  0.35748828  0.60136409  0.75249286     0.06600
C720        C  0.35433341  0.59909596  0.71426727    -0.20200
C721        C  0.08148648  0.70488655  0.71373769    -0.19300
C722        C  0.07849874  0.70401428  0.75195115     0.04700
C723        C  0.07471240  0.70460110  0.79651529     0.06600
C724        C  0.07270883  0.70638744  0.83466600    -0.20200
C725        C  0.08501232  0.87905676  0.83279750    -0.19300
C726        C  0.08352112  0.87866095  0.79404291     0.04700
C727        C  0.08216332  0.87753429  0.74852738     0.06600
C728        C  0.08156313  0.87603445  0.70977655    -0.20200
C729        C  0.25382702  0.87023913  0.82505059    -0.19300
C730        C  0.25507604  0.87075611  0.78647341     0.04700
C731        C  0.25468857  0.87107488  0.74121644     0.06600
C732        C  0.25306884  0.87150628  0.70267724    -0.20200
C733        C  0.74839372  0.38730074  0.16277267     0.79400
N734        N  0.74445715  0.35800959  0.14099018    -0.78900
C735        C  0.74137759  0.35647861  0.09783944     0.81800
N736        N  0.74350394  0.38514527  0.07643170    -0.78900
C737        C  0.74814171  0.41499817  0.09799112     0.81900
N738        N  0.74989445  0.41574357  0.14141006    -0.80600
C739        C  0.74978863  0.37410648  0.37508859     0.79400
N740        N  0.74394461  0.39819557  0.39717870    -0.78900
C741        C  0.74122292  0.39625918  0.44031796     0.81800
N742        N  0.74564408  0.37106674  0.46129260    -0.78900
C743        C  0.75219060  0.34734611  0.43958715     0.81900
N744        N  0.75345520  0.34821408  0.39618238    -0.80600
C745        C  0.58147012  0.37244027  0.37857085     0.79400
N746        N  0.56031682  0.34160120  0.40036603    -0.78900
C747        C  0.56589836  0.34000306  0.44296333     0.81800
N748        N  0.59182116  0.36931804  0.46338333    -0.78900
C749        C  0.61216317  0.40028443  0.44219584     0.81900
N750        N  0.60765594  0.40167358  0.39945159    -0.80600
C751        C  0.58375325  0.37494364  0.16512675     0.79400
N752        N  0.61370398  0.39906869  0.14378414    -0.78900
C753        C  0.61611729  0.39487201  0.10100787     0.81800
N754        N  0.58862814  0.36729669  0.08009160    -0.78900
C755        C  0.55863979  0.34383408  0.10082715     0.81900
N756        N  0.55639410  0.34705095  0.14368514    -0.80600
C757        C  0.59352437  0.21317697  0.17308885     0.79400
N758        N  0.56784995  0.21658728  0.15082994    -0.78900
C759        C  0.57011810  0.21990385  0.10761499     0.81800
N760        N  0.59728216  0.21904759  0.08700413    -0.78900
C761        C  0.62214582  0.21455871  0.10858837     0.81900
N762        N  0.62086120  0.21214201  0.15192087    -0.80600
C763        C  0.58443621  0.21274074  0.38717331     0.79400
N764        N  0.61421286  0.21998787  0.41063956    -0.78900
C765        C  0.61352376  0.22181138  0.45391760     0.81800
N766        N  0.58302350  0.21658169  0.47343662    -0.78900
C767        C  0.55310325  0.20928896  0.45036830     0.81900
N768        N  0.55404933  0.20806750  0.40697719    -0.80600
C769        C  0.86409954  0.11095058  0.37515798     0.79400
N770        N  0.89372805  0.13604718  0.39674095    -0.78900
C771        C  0.89341714  0.13709836  0.44024677     0.81800
N772        N  0.86310053  0.11389334  0.46151996    -0.78900
C773        C  0.83345803  0.08932276  0.43988452     0.81900
N774        N  0.83436781  0.08760142  0.39678587    -0.80600
C775        C  0.84243831  0.09021014  0.16388132     0.79400
N776        N  0.81601701  0.06178990  0.14194759    -0.78900
C777        C  0.81624518  0.06200080  0.09842115     0.81800
N778        N  0.84170911  0.09097216  0.07744797    -0.78900
C779        C  0.86745855  0.11938124  0.09926252     0.81900
N780        N  0.86820784  0.11866212  0.14247401    -0.80600
C781        C  0.87031482  0.26815064  0.16721594     0.79400
N782        N  0.89711930  0.26566456  0.14674125    -0.78900
C783        C  0.89582246  0.26216721  0.10354609     0.81800
N784        N  0.86743217  0.25939106  0.08148508    -0.78900
C785        C  0.84052496  0.26121716  0.10138752     0.81900
N786        N  0.84201911  0.26615178  0.14450311    -0.80600
C787        C  0.87155904  0.27689075  0.38101820     0.79400
N788        N  0.89082695  0.26494944  0.40378496    -0.78900
C789        C  0.88635477  0.26052962  0.44670611     0.81800
N790        N  0.86329176  0.26898571  0.46675317    -0.78900
C791        C  0.84457359  0.28173957  0.44439234     0.81900
N792        N  0.84790290  0.28452936  0.40121605    -0.80600
C793        C  0.69235418  0.11014450  0.38294217     0.79400
N794        N  0.69100362  0.13696344  0.40511740    -0.78900
C795        C  0.68935668  0.13615460  0.44857771     0.81800
N796        N  0.69006812  0.10868500  0.46962914    -0.78900
C797        C  0.69247410  0.08228224  0.44775748     0.81900
N798        N  0.69404775  0.08332503  0.40436858    -0.80600
C799        C  0.70891872  0.11769376  0.16917203     0.79400
N800        N  0.71605303  0.14869795  0.14853999    -0.78900
C801        C  0.72564199  0.15273433  0.10670465     0.81800
N802        N  0.72758531  0.12594619  0.08623254    -0.78900
C803        C  0.71941575  0.09475300  0.10551868     0.81900
N804        N  0.70996321  0.09030121  0.14740660    -0.80600
O805        O  0.72876360  0.28721261  0.45951747    -0.81000
O806        O  0.71960601  0.19875504  0.45977886    -0.81000
O807        O  0.81997890  0.29981717  0.50138548    -0.81000
O808        O  0.66044164  0.21484919  0.48876384    -0.80900
O809        O  0.78361007  0.26016483  0.45540029    -0.81100
O810        O  0.66191130  0.26734897  0.49260852    -0.81000
O811        O  0.68314547  0.16709710  0.50983777    -0.81000
O812        O  0.77442196  0.32878910  0.49717881    -0.81000
C813        C  0.75382300  0.31926923  0.46427419     1.08700
C814        C  0.69576100  0.16864522  0.47273654     1.08600
C815        C  0.81487159  0.28335573  0.46583000     1.08700
C816        C  0.64671700  0.23523593  0.47939926     1.08600
O817        O  0.67680006  0.24614316  0.07225258    -0.81000
O818        O  0.80615788  0.24487984  0.03784445    -0.78900
O819        O  0.75468349  0.30919688  0.08621868    -0.81000
O820        O  0.71633327  0.20223998  0.08971951    -0.81000
O821        O  0.74390309  0.18517209  0.04314109    -0.81000
O822        O  0.71898864  0.31393557  0.04054498    -0.81000
O823        O  0.64788587  0.18630470  0.06807674    -0.80900
O824        O  0.79580455  0.27651522  0.08634624    -0.81000
Co825      Co  0.70312167  0.26514345  0.01425540     1.51500
Co826      Co  0.76241610  0.22391118  0.99883757     1.51700
Co827      Co  0.78358942  0.30129593  0.04220035     1.51600
Co828      Co  0.69273467  0.21238012  0.04095042     1.51500
O829        O  0.74142978  0.25252402  0.02456285    -1.42900
C830        C  0.65085437  0.21521021  0.08354253     1.08700
C831        C  0.81161481  0.25959745  0.07480148     1.08700
C832        C  0.73751693  0.32469293  0.07439345     1.08700
C833        C  0.73041489  0.18301572  0.08006302     1.08700
O834        O  0.53386721  0.28530665  0.07486949    -0.81000
O835        O  0.88876595  0.16137491  0.04266500    -0.81000
O836        O  0.94194524  0.27883768  0.05360576    -0.81000
O837        O  0.00124968  0.19159672  0.09059592    -0.80900
O838        O  0.91499541  0.22445625  0.07597353    -0.81100
O839        O  0.55265964  0.24119188  0.04776469    -0.81000
O840        O  0.92809586  0.16119982  0.08772252    -0.81000
O841        O  0.01401686  0.30992255  0.05141038    -0.81000
C842        C  0.53182355  0.31326220  0.07640446     1.08700
C843        C  0.89590394  0.14915762  0.07598211     1.08600
C844        C  0.92094204  0.25580644  0.07948504     1.08700
C845        C  0.54319987  0.22291951  0.08193053     1.08600
O846        O  0.51342366  0.23120390  0.46808918    -0.81000
O847        O  0.88888382  0.22027792  0.49713665    -0.81000
O848        O  0.01849703  0.29256280  0.46634367    -0.81000
O849        O  0.93579930  0.15251431  0.49636607    -0.81000
O850        O  0.93314877  0.19639842  0.46390950    -0.81000
O851        O  0.55919760  0.29903852  0.49755789    -0.81000
O852        O  0.01091947  0.18488285  0.49985080    -0.80900
O853        O  0.94016160  0.25998092  0.46768606    -0.81000
Co854      Co  0.52376082  0.26079180  0.01928677     1.51500
Co855      Co  0.92257673  0.21032097  0.01938571     1.51700
Co856      Co  0.97549945  0.27483667  0.01222228     1.51600
Co857      Co  0.96518292  0.17212347  0.04384283     1.51500
O858        O  0.97009283  0.22275818  0.03734421    -1.42900
C859        C  0.52212101  0.20724754  0.47342192     1.08700
C860        C  0.90581206  0.24636996  0.47179556     1.08700
C861        C  0.54410916  0.30776964  0.46841749     1.08700
C862        C  0.92445230  0.16364985  0.46552836     1.08700
O863        O  0.72442215  0.45274493  0.07777528    -0.81000
O864        O  0.74500423  0.07996387  0.04941869    -0.81000
O865        O  0.79753759  0.02270672  0.03932791    -0.81000
O866        O  0.66412484  0.45312383  0.08051568    -0.80900
O867        O  0.75639061  0.02639944  0.07590964    -0.81100
O868        O  0.65836328  0.40415203  0.04786742    -0.81000
O869        O  0.69948684  0.03333721  0.08112169    -0.81000
O870        O  0.76930913  0.45663161  0.04121644    -0.81000
C871        C  0.74908129  0.44492860  0.07350323     1.08700
C872        C  0.72148240  0.06776940  0.07832873     1.08600
C873        C  0.78832853  0.03314601  0.07253440     1.08700
C874        C  0.64782936  0.41845937  0.07590286     1.08600
O875        O  0.67070658  0.42904980  0.46805017    -0.81000
O876        O  0.79235265  0.07175823  0.49768610    -0.81000
O877        O  0.75135799  0.45469680  0.45410634    -0.81000
O878        O  0.67517083  0.03475700  0.49713562    -0.81000
O879        O  0.72861070  0.05785933  0.47179374    -0.81000
O880        O  0.71587584  0.41228605  0.49797388    -0.81000
O881        O  0.63678498  0.44939348  0.49068822    -0.80900
O882        O  0.78447098  0.03091726  0.45005280    -0.81000
Co883      Co  0.69691044  0.44538715  0.02372331     1.51500
Co884      Co  0.73830071  0.03798843  0.02310769     1.51700
Co885      Co  0.77447364  0.49396256  0.99780981     1.51600
Co886      Co  0.67639101  0.49283401  0.03495921     1.51500
O887        O  0.72556810  0.49378066  0.00556993    -1.42900
C888        C  0.64184995  0.42928887  0.46560603     1.08700
C889        C  0.80148831  0.06310561  0.46301508     1.08700
C890        C  0.73518301  0.42205745  0.46464999     1.08700
C891        C  0.69853855  0.05615689  0.47189332     1.08700
C892        C  0.70201159  0.11463169  0.21451056    -0.19300
C893        C  0.69827308  0.11309001  0.25291986     0.04700
C894        C  0.69548423  0.11193368  0.29817182     0.06600
C895        C  0.69386613  0.11113195  0.33681556    -0.20200
C896        C  0.87368802  0.27820483  0.33513895    -0.19300
C897        C  0.87389248  0.27745278  0.29656761     0.04700
C898        C  0.87289051  0.27504014  0.25142181     0.06600
C899        C  0.87162957  0.27218444  0.21296121    -0.20200
C900        C  0.86331320  0.10836889  0.32939912    -0.19300
C901        C  0.85802031  0.10278796  0.29153747     0.04700
C902        C  0.84982836  0.09525972  0.24763210     0.06600
C903        C  0.84424946  0.09068191  0.20969630    -0.20200
C904        C  0.59219067  0.21178609  0.21906833    -0.19300
C905        C  0.59043005  0.21140727  0.25761574     0.04700
C906        C  0.58787603  0.21141281  0.30273992     0.06600
C907        C  0.58582752  0.21173258  0.34123212    -0.20200
C908        C  0.57813832  0.37354418  0.33291702    -0.19300
C909        C  0.57797518  0.37519901  0.29441677     0.04700
C910        C  0.57973300  0.37696536  0.24929262     0.06600
C911        C  0.58180033  0.37726624  0.21081549    -0.20200
C912        C  0.75137181  0.37604941  0.32937849    -0.19300
C913        C  0.75183879  0.37970529  0.29120155     0.04700
C914        C  0.75152532  0.38462084  0.24669802     0.06600
C915        C  0.75052401  0.38749382  0.20850819    -0.20200
C916        C  0.74751413  0.38495248  0.66342866     0.79400
N917        N  0.74373032  0.35588115  0.64126437    -0.78900
C918        C  0.73999756  0.35446944  0.59817936     0.81800
N919        N  0.74128896  0.38292033  0.57732257    -0.78900
C920        C  0.74571145  0.41243684  0.59932583     0.81900
N921        N  0.74821719  0.41320192  0.64260911    -0.80600
C922        C  0.75079425  0.37566728  0.87541777     0.79400
N923        N  0.74500312  0.40007036  0.89681544    -0.78900
C924        C  0.74132498  0.39814488  0.93983231     0.81800
N925        N  0.74468426  0.37246486  0.96140842    -0.78900
C926        C  0.75116104  0.34837570  0.94024623     0.81900
N927        N  0.75348898  0.34946205  0.89697792    -0.80600
C928        C  0.58564144  0.37694182  0.87977898     0.79400
N929        N  0.56558099  0.34571412  0.90133978    -0.78900
C930        C  0.57016289  0.34441072  0.94422880     0.81800
N931        N  0.59399403  0.37456811  0.96540313    -0.78900
C932        C  0.61328831  0.40609448  0.94461460     0.81900
N933        N  0.60997585  0.40699567  0.90139725    -0.80600
C934        C  0.58034546  0.37157604  0.66444629     0.79400
N935        N  0.61039056  0.39460691  0.64247390    -0.78900
C936        C  0.61144293  0.39111013  0.59932912     0.81800
N937        N  0.58233299  0.36535808  0.57844969    -0.78900
C938        C  0.55205692  0.34292815  0.59965474     0.81900
N939        N  0.55141651  0.34521828  0.64303371    -0.80600
C940        C  0.58979771  0.20818225  0.67270419     0.79400
N941        N  0.56454905  0.21335819  0.65197725    -0.78900
C942        C  0.56760920  0.22009669  0.60930977     0.81800
N943        N  0.59534450  0.22105500  0.58770924    -0.78900
C944        C  0.61979482  0.21481377  0.60773658     0.81900
N945        N  0.61734614  0.20856900  0.65045452    -0.80600
C946        C  0.58625319  0.20856279  0.88654336     0.79400
N947        N  0.61595763  0.21667929  0.91079310    -0.78900
C948        C  0.61529543  0.22131177  0.95373182     0.81800
N949        N  0.58507819  0.21786205  0.97193730    -0.78900
C950        C  0.55536453  0.20962830  0.94814668     0.81900
N951        N  0.55609430  0.20557361  0.90516169    -0.80600
C952        C  0.85947017  0.10592626  0.87505286     0.79400
N953        N  0.88865955  0.13092326  0.89712608    -0.78900
C954        C  0.88784057  0.13133202  0.94047776     0.81800
N955        N  0.85758737  0.10773833  0.96125458    -0.78900
C956        C  0.82835265  0.08323807  0.93924234     0.81900
N957        N  0.82957481  0.08196216  0.89606841    -0.80600
C958        C  0.84942850  0.09462152  0.66279094     0.79400
N959        N  0.82269261  0.06670189  0.64078135    -0.78900
C960        C  0.82294980  0.06703525  0.59739800     0.81800
N961        N  0.84886526  0.09578045  0.57648331    -0.78900
C962        C  0.87502788  0.12383272  0.59844146     0.81900
N963        N  0.87565699  0.12293706  0.64166054    -0.80600
C964        C  0.87141077  0.26992422  0.66678174     0.79400
N965        N  0.89915973  0.26913266  0.64646016    -0.78900
C966        C  0.89821510  0.26559809  0.60327461     0.81800
N967        N  0.86908304  0.26112519  0.58099535    -0.78900
C968        C  0.84120415  0.26134932  0.60089562     0.81900
N969        N  0.84251786  0.26628384  0.64397559    -0.80600
C970        C  0.87016267  0.27578627  0.88054907     0.79400
N971        N  0.88795212  0.26200415  0.90298630    -0.78900
C972        C  0.88318061  0.25724129  0.94583919     0.81800
N973        N  0.86139328  0.26725815  0.96615147    -0.78900
C974        C  0.84422168  0.28187277  0.94411216     0.81900
N975        N  0.84773740  0.28496400  0.90099114    -0.80600
C976        C  0.68969152  0.10751842  0.88314987     0.79400
N977        N  0.69036985  0.13527743  0.90545694    -0.78900
C978        C  0.68949035  0.13482296  0.94891564     0.81800
N979        N  0.68886961  0.10656810  0.96984997    -0.78900
C980        C  0.68913629  0.07906370  0.94769893     0.81900
N981        N  0.69001655  0.07991840  0.90431602    -0.80600
C982        C  0.70894889  0.11854566  0.67024392     0.79400
N983        N  0.71477306  0.14914867  0.64956036    -0.78900
C984        C  0.72491544  0.15364083  0.60788733     0.81800
N985        N  0.72873425  0.12785979  0.58780527    -0.78900
C986        C  0.72192267  0.09717113  0.60711730     0.81900
N987        N  0.71183470  0.09208327  0.64873868    -0.80600
O988        O  0.72756167  0.28810309  0.96071318    -0.81000
O989        O  0.72099703  0.19790159  0.95934645    -0.81000
O990        O  0.82046079  0.30118491  0.00079289    -0.81000
O991        O  0.66272247  0.21512205  0.98825892    -0.80900
O992        O  0.78368382  0.26121551  0.95538937    -0.81100
O993        O  0.66116266  0.26587795  0.99625000    -0.81000
O994        O  0.68481888  0.16691480  0.01000445    -0.81000
O995        O  0.77424305  0.32976602  0.99710969    -0.81000
C996        C  0.75272972  0.32022602  0.96506631     1.08700
C997        C  0.69716998  0.16791520  0.97291567     1.08600
C998        C  0.81502370  0.28441283  0.96539686     1.08700
C999        C  0.64784430  0.23469216  0.98032184     1.08600
O1000       O  0.67385101  0.24633258  0.56942494    -0.81000
O1001       O  0.80523044  0.24320868  0.53804735    -0.78900
O1002       O  0.75370299  0.30768182  0.58604180    -0.81000
O1003       O  0.71434104  0.20221686  0.59020226    -0.81000
O1004       O  0.74169809  0.18479904  0.54365208    -0.81000
O1005       O  0.71919837  0.31357115  0.53936628    -0.81000
O1006       O  0.64599821  0.18637233  0.56816927    -0.80900
O1007       O  0.79501336  0.27488557  0.58655436    -0.81000
Co1008     Co  0.70258156  0.26494391  0.51236526     1.51500
Co1009     Co  0.76115704  0.22319648  0.49913660     1.51700
Co1010     Co  0.78298764  0.30000985  0.54248775     1.51600
Co1011     Co  0.69096567  0.21233644  0.54129073     1.51500
O1012       O  0.74023015  0.25179924  0.52476732    -1.42900
C1013       C  0.64828574  0.21548594  0.58187719     1.08700
C1014       C  0.81132629  0.25847302  0.57474083     1.08700
C1015       C  0.73675276  0.32334682  0.57402947     1.08700
C1016       C  0.72859361  0.18314715  0.58072409     1.08700
O1017       O  0.52665944  0.28382070  0.57637663    -0.81000
O1018       O  0.89563872  0.16654275  0.54267281    -0.81000
O1019       O  0.94643157  0.28433222  0.55521997    -0.81000
O1020       O  0.00910494  0.19856876  0.58979586    -0.80900
O1021       O  0.91984792  0.22948903  0.57626475    -0.81100
O1022       O  0.54892950  0.24173069  0.55072300    -0.81000
O1023       O  0.93559155  0.16624500  0.58670720    -0.81000
O1024       O  0.01970177  0.31697518  0.55208143    -0.81000
C1025       C  0.52489386  0.31190334  0.57565045     1.08700
C1026       C  0.90327035  0.15400170  0.57532331     1.08600
C1027       C  0.92468551  0.26049290  0.57989048     1.08700
C1028       C  0.54017240  0.22344162  0.58480530     1.08600
O1029       O  0.51732995  0.23333766  0.96545461    -0.81000
O1030       O  0.88393635  0.21598690  0.99638484    -0.81000
O1031       O  0.01356688  0.28504661  0.96568733    -0.81000
O1032       O  0.92817781  0.14598714  0.99780878    -0.81000
O1033       O  0.92724303  0.19027524  0.96399978    -0.81000
O1034       O  0.56495330  0.30103454  0.99554131    -0.81000
O1035       O  0.00202572  0.17574931  0.00092147    -0.80900
O1036       O  0.93553576  0.25384281  0.96629607    -0.81000
Co1037     Co  0.51835965  0.25901342  0.52142599     1.51500
Co1038     Co  0.92825740  0.21590939  0.51971373     1.51700
Co1039     Co  0.98052942  0.28129441  0.51340136     1.51600
Co1040     Co  0.97302715  0.17909754  0.54269538     1.51500
O1041       O  0.97614841  0.22924530  0.53771656    -1.42900
C1042       C  0.52444072  0.20818673  0.97016964     1.08700
C1043       C  0.90144754  0.24163692  0.97065493     1.08700
C1044       C  0.54927840  0.31126295  0.96876726     1.08700
C1045       C  0.91814414  0.15748217  0.96617400     1.08700
O1046       O  0.72079976  0.44879442  0.57876048    -0.81000
O1047       O  0.74956430  0.08434730  0.55173423    -0.81000
O1048       O  0.80309073  0.02840737  0.53805624    -0.81000
O1049       O  0.65949693  0.44847970  0.57763538    -0.80900
O1050       O  0.76253376  0.03161897  0.57650890    -0.81100
O1051       O  0.65503211  0.39908820  0.54770475    -0.81000
O1052       O  0.70366965  0.03675444  0.58181873    -0.81000
O1053       O  0.76722271  0.45447827  0.54364922    -0.81000
C1054       C  0.74636058  0.44220647  0.57532378     1.08700
C1055       C  0.72544922  0.07122478  0.57996258     1.08600
C1056       C  0.79448111  0.03857666  0.57185643     1.08700
C1057       C  0.64353882  0.41380236  0.57413107     1.08600
O1058       O  0.67220960  0.43472398  0.96870832    -0.81000
O1059       O  0.78738382  0.06584633  0.99682707    -0.81000
O1060       O  0.75191369  0.45714739  0.95218655    -0.81000
O1061       O  0.67112123  0.03095423  0.99677689    -0.81000
O1062       O  0.72390769  0.05256673  0.96999607    -0.81000
O1063       O  0.71658596  0.41563982  0.99681413    -0.81000
O1064       O  0.63919943  0.45504798  0.99480425    -0.80900
O1065       O  0.78036262  0.02466135  0.95014034    -0.81000
Co1066     Co  0.69427182  0.44063431  0.52401914     1.51500
Co1067     Co  0.74342502  0.04306170  0.52450151     1.51700
Co1068     Co  0.77252517  0.49135882  0.49992288     1.51600
Co1069     Co  0.67228004  0.48720033  0.53094052     1.51500
O1070       O  0.72314865  0.48926632  0.50653480    -1.42900
C1071       C  0.64337356  0.43509620  0.96815886     1.08700
C1072       C  0.79666910  0.05697038  0.96243808     1.08700
C1073       C  0.73559846  0.42463573  0.96333752     1.08700
C1074       C  0.69438464  0.05203310  0.97113374     1.08700
C1075       C  0.70129284  0.11479766  0.71531541    -0.19300
C1076       C  0.69680019  0.11225102  0.75353904     0.04700
C1077       C  0.69316195  0.10995417  0.79859070     0.06600
C1078       C  0.69110661  0.10856754  0.83713113    -0.20200
C1079       C  0.87248043  0.27756246  0.83472856    -0.19300
C1080       C  0.87301770  0.27737557  0.79617384     0.04700
C1081       C  0.87271683  0.27574478  0.75102283     0.06600
C1082       C  0.87215623  0.27350180  0.71253578    -0.20200
C1083       C  0.85975205  0.10449593  0.82946064    -0.19300
C1084       C  0.85737232  0.10144843  0.79122819     0.04700
C1085       C  0.85321138  0.09724205  0.74664950     0.06600
C1086       C  0.85030248  0.09470773  0.70841285    -0.20200
C1087       C  0.58832725  0.20407959  0.71844750    -0.19300
C1088       C  0.58786126  0.20276988  0.75703088     0.04700
C1089       C  0.58765082  0.20326236  0.80230291     0.06600
C1090       C  0.58727819  0.20505332  0.84083817    -0.20200
C1091       C  0.58306256  0.37732811  0.83363729    -0.19300
C1092       C  0.58158534  0.37668954  0.79488992     0.04700
C1093       C  0.58047304  0.37527459  0.74938714     0.06600
C1094       C  0.58004817  0.37375482  0.71064272    -0.20200
C1095       C  0.75302843  0.37733122  0.82987485    -0.19300
C1096       C  0.75348647  0.38008452  0.79165325     0.04700
C1097       C  0.75251503  0.38356060  0.74708883     0.06600
C1098       C  0.75064573  0.38540746  0.70893473    -0.20200
C1099       C  0.73941806  0.88223912  0.16011070     0.79400
N1100       N  0.73345925  0.85198542  0.13874944    -0.78900
C1101       C  0.72869178  0.84965908  0.09570571     0.81800
N1102       N  0.73121867  0.87829886  0.07407626    -0.78900
C1103       C  0.73778492  0.90890777  0.09512154     0.81900
N1104       N  0.74130940  0.91068062  0.13837492    -0.80600
C1105       C  0.74754360  0.87793506  0.37301587     0.79400
N1106       N  0.73926690  0.90088231  0.39381389    -0.78900
C1107       C  0.73391982  0.89810214  0.43660498     0.81800
N1108       N  0.73771194  0.87295988  0.45859760    -0.78900
C1109       C  0.74724025  0.85080452  0.43840414     0.81900
N1110       N  0.75158913  0.85273838  0.39527121    -0.80600
C1111       C  0.57843161  0.88524193  0.37962555     0.79400
N1112       N  0.55670295  0.85445145  0.40129421    -0.78900
C1113       C  0.56156803  0.85268852  0.44407098     0.81800
N1114       N  0.58743789  0.88179875  0.46486994    -0.78900
C1115       C  0.60851477  0.91281734  0.44413972     0.81900
N1116       N  0.60482387  0.91422680  0.40102723    -0.80600
C1117       C  0.57362885  0.88029473  0.16419573     0.79400
N1118       N  0.60438398  0.90206814  0.14249088    -0.78900
C1119       C  0.60612517  0.89719185  0.09971539     0.81800
N1120       N  0.57702098  0.87126459  0.07895652    -0.78900
C1121       C  0.54603605  0.85014285  0.09972509     0.81900
N1122       N  0.54465553  0.85384971  0.14283357    -0.80600
C1123       C  0.58143834  0.71160404  0.17075695     0.79400
N1124       N  0.55833190  0.71969122  0.14997672    -0.78900
C1125       C  0.56086601  0.72475560  0.10713178     0.81800
N1126       N  0.58591163  0.72085988  0.08507803    -0.78900
C1127       C  0.60821795  0.71151486  0.10526541     0.81900
N1128       N  0.60655330  0.70748035  0.14844381    -0.80600
C1129       C  0.57669245  0.71934368  0.38367571     0.79400
N1130       N  0.60691576  0.72530134  0.40512159    -0.78900
C1131       C  0.60920047  0.73008883  0.44815357     0.81800
N1132       N  0.58054056  0.72758217  0.46970224    -0.78900
C1133       C  0.54995037  0.72101081  0.44857510     0.81900
N1134       N  0.54822298  0.71746865  0.40532109    -0.80600
C1135       C  0.85905923  0.61204541  0.37838898     0.79400
N1136       N  0.88819432  0.63753926  0.40015830    -0.78900
C1137       C  0.88815471  0.63752511  0.44360310     0.81800
N1138       N  0.85863243  0.61310396  0.46481289    -0.78900
C1139       C  0.82943487  0.58818046  0.44319673     0.81900
N1140       N  0.82995408  0.58724625  0.39991761    -0.80600
C1141       C  0.84667406  0.60021899  0.16542578     0.79400
N1142       N  0.82111226  0.57104941  0.14377690    -0.78900
C1143       C  0.82103722  0.57098399  0.10033372     0.81800
N1144       N  0.84545641  0.60043042  0.07900032    -0.78900
C1145       C  0.87046173  0.62965871  0.10049036     0.81900
N1146       N  0.87147765  0.62924306  0.14377513    -0.80600
C1147       C  0.85841286  0.76866328  0.16410034     0.79400
N1148       N  0.88759769  0.77025926  0.14454064    -0.78900
C1149       C  0.88772272  0.76742838  0.10128454     0.81800
N1150       N  0.85828585  0.76100660  0.07826639    -0.78900
C1151       C  0.82905266  0.75871193  0.09749302     0.81900
N1152       N  0.82925015  0.76313028  0.14053388    -0.80600
C1153       C  0.84488112  0.75836559  0.37633483     0.79400
N1154       N  0.87034309  0.75343388  0.39716820    -0.78900
C1155       C  0.86527492  0.74332741  0.43871215     0.81800
N1156       N  0.83537941  0.73842924  0.45869986    -0.78900
C1157       C  0.81051278  0.74421040  0.43910442     0.81900
N1158       N  0.81512955  0.75435586  0.39744958    -0.80600
C1159       C  0.69015891  0.60067754  0.37961997     0.79400
N1160       N  0.69580698  0.62985592  0.40322548    -0.78900
C1161       C  0.70036690  0.63005699  0.44625610     0.81800
N1162       N  0.69808052  0.60080261  0.46543429    -0.78900
C1163       C  0.69154876  0.57135660  0.44237946     0.81900
N1164       N  0.68857704  0.57148034  0.39913946    -0.80600
C1165       C  0.70008494  0.61391431  0.16730543     0.79400
N1166       N  0.70438344  0.64380904  0.14625368    -0.78900
C1167       C  0.71471495  0.64851170  0.10466212     0.81800
N1168       N  0.72037756  0.62359020  0.08506435    -0.78900
C1169       C  0.71518352  0.59355486  0.10496820     0.81900
N1170       N  0.70490130  0.58839936  0.14645024    -0.80600
O1171       O  0.71804915  0.79614557  0.47537443    -0.81000
O1172       O  0.71977582  0.66551486  0.50963595    -0.81000
O1173       O  0.76342445  0.75733644  0.45694447    -0.81000
O1174       O  0.65727900  0.71839108  0.46042112    -0.80900
O1175       O  0.77928877  0.72838988  0.50324100    -0.81100
O1176       O  0.65098211  0.75285896  0.50626037    -0.81000
O1177       O  0.68919766  0.67725757  0.46126377    -0.81000
O1178       O  0.77790155  0.82607290  0.47785057    -0.81000
C1179       C  0.74838128  0.82282106  0.46380533     1.08700
C1180       C  0.70465746  0.66007787  0.47290868     1.08600
C1181       C  0.78158470  0.74199389  0.46638510     1.08700
C1182       C  0.64119834  0.73497096  0.47186633     1.08600
O1183       O  0.66283665  0.74081778  0.06830009    -0.81000
O1184       O  0.79363793  0.73946618  0.03412800    -0.78900
O1185       O  0.74049648  0.80164320  0.08350750    -0.81000
O1186       O  0.70174649  0.69566480  0.08677515    -0.81000
O1187       O  0.73083155  0.67989830  0.04058791    -0.81000
O1188       O  0.70603249  0.80790957  0.03758823    -0.81000
O1189       O  0.63298004  0.68097215  0.06569034    -0.80900
O1190       O  0.78181501  0.76988093  0.08261042    -0.81000
Co1191     Co  0.68965935  0.75920814  0.01060361     1.51500
Co1192     Co  0.74912940  0.71800040  0.99579533     1.51700
Co1193     Co  0.76950252  0.79472318  0.03893914     1.51600
Co1194     Co  0.67817403  0.70597382  0.03798465     1.51500
O1195       O  0.72743093  0.74601903  0.02148489    -1.42900
C1196       C  0.63619708  0.71044832  0.07981636     1.08700
C1197       C  0.79903433  0.75448409  0.07089273     1.08700
C1198       C  0.72386222  0.81767148  0.07203679     1.08700
C1199       C  0.71712453  0.67753799  0.07740133     1.08700
O1200       O  0.52210968  0.79154078  0.07500293    -0.81000
O1201       O  0.88961991  0.67126007  0.04318127    -0.81000
O1202       O  0.93649263  0.78826482  0.05376725    -0.81000
O1203       O  0.00399922  0.70740082  0.08936660    -0.80900
O1204       O  0.91214965  0.73372847  0.07517480    -0.81100
O1205       O  0.54311621  0.74835740  0.04929682    -0.81000
O1206       O  0.93034758  0.67392936  0.08816666    -0.81000
O1207       O  0.00966960  0.82197514  0.05280750    -0.81000
C1208       C  0.51875140  0.81878395  0.07602368     1.08700
C1209       C  0.89785930  0.66016092  0.07672798     1.08600
C1210       C  0.91546370  0.76409701  0.07856861     1.08700
C1211       C  0.53449357  0.73045920  0.08371343     1.08600
O1212       O  0.51091317  0.74297095  0.46857024    -0.81000
O1213       O  0.87660752  0.71310577  0.49245682    -0.81000
O1214       O  0.00578722  0.79459786  0.46310813    -0.81000
O1215       O  0.92819856  0.65437066  0.50172340    -0.81000
O1216       O  0.92692212  0.69704614  0.46563305    -0.81000
O1217       O  0.55647737  0.81099899  0.49684938    -0.81000
O1218       O  0.00236684  0.68955369  0.50281583    -0.80900
O1219       O  0.92527871  0.75717653  0.46177268    -0.81000
Co1220     Co  0.51211562  0.76566310  0.02062458     1.51500
Co1221     Co  0.92133904  0.72059421  0.01885956     1.51700
Co1222     Co  0.97173595  0.78661044  0.01258407     1.51600
Co1223     Co  0.96729235  0.68623399  0.04359189     1.51500
O1224       O  0.96955220  0.73565857  0.03683298    -1.42900
C1225       C  0.52009323  0.71936874  0.47345260     1.08700
C1226       C  0.89048154  0.73742060  0.46458798     1.08700
C1227       C  0.54043686  0.81988155  0.46906115     1.08700
C1228       C  0.91819146  0.66451776  0.46899254     1.08700
O1229       O  0.71583191  0.94794112  0.07508212    -0.81000
O1230       O  0.74544324  0.58224494  0.05131405    -0.81000
O1231       O  0.80429082  0.53081013  0.04239807    -0.81000
O1232       O  0.65796060  0.95294565  0.07935378    -0.80900
O1233       O  0.76152631  0.53200940  0.07835653    -0.81100
O1234       O  0.64777966  0.90236798  0.04686450    -0.81000
O1235       O  0.70125864  0.53355613  0.08182749    -0.81000
O1236       O  0.75887733  0.94895998  0.03718537    -0.81000
C1237       C  0.73940351  0.93872641  0.07017432     1.08700
C1238       C  0.72105591  0.56835052  0.07908290     1.08600
C1239       C  0.79408266  0.54082593  0.07505710     1.08700
C1240       C  0.63890099  0.91837761  0.07467828     1.08600
O1241       O  0.66705225  0.93660662  0.46903786    -0.81000
O1242       O  0.78765005  0.56909607  0.50027836    -0.81000
O1243       O  0.74469542  0.95684385  0.44867126    -0.81000
O1244       O  0.67070701  0.52260202  0.48992369    -0.81000
O1245       O  0.72514549  0.54669711  0.46823256    -0.81000
O1246       O  0.71038256  0.91579798  0.49455164    -0.81000
O1247       O  0.63774401  0.96143436  0.49416787    -0.80900
O1248       O  0.78500684  0.52834686  0.45536514    -0.81000
Co1249     Co  0.68799841  0.94203418  0.02176752     1.51500
Co1250     Co  0.74191004  0.54148414  0.02533483     1.51700
Co1251     Co  0.76601236  0.98712354  0.99431911     1.51600
Co1252     Co  0.67218382  0.99312628  0.03410132     1.51500
O1253       O  0.71886054  0.99001799  0.00333721    -1.42900
C1254       C  0.63987280  0.94007481  0.46786430     1.08700
C1255       C  0.79880863  0.56082794  0.46681772     1.08700
C1256       C  0.72818995  0.92442191  0.46006644     1.08700
C1257       C  0.69482721  0.54354445  0.46501465     1.08700
C1258       C  0.69254797  0.61010205  0.21226027    -0.19300
C1259       C  0.68887215  0.60689407  0.25047691     0.04700
C1260       C  0.68716629  0.60355694  0.29544037     0.06600
C1261       C  0.68759709  0.60153608  0.33386843    -0.20200
C1262       C  0.84864661  0.76582605  0.33137700    -0.19300
C1263       C  0.85190361  0.76953912  0.29317876     0.04700
C1264       C  0.85538079  0.77137002  0.24825202     0.06600
C1265       C  0.85752130  0.77107086  0.20984356    -0.20200
C1266       C  0.85865114  0.61077731  0.33258389    -0.19300
C1267       C  0.85585633  0.60768790  0.29426248     0.04700
C1268       C  0.85135972  0.60336424  0.24954030     0.06600
C1269       C  0.84811512  0.60066019  0.21122622    -0.20200
C1270       C  0.58007849  0.70930509  0.21653683    -0.19300
C1271       C  0.57802597  0.70965106  0.25494496     0.04700
C1272       C  0.57580258  0.71193208  0.29977587     0.06600
C1273       C  0.57511839  0.71493510  0.33805239    -0.20200
C1274       C  0.57546220  0.88605338  0.33348049    -0.19300
C1275       C  0.57391012  0.88589239  0.29469949     0.04700
C1276       C  0.57295925  0.88489742  0.24911047     0.06600
C1277       C  0.57282507  0.88330857  0.21033375    -0.20200
C1278       C  0.74999825  0.87945999  0.32725081    -0.19300
C1279       C  0.74960130  0.88147178  0.28883892     0.04700
C1280       C  0.74711766  0.88347559  0.24400057     0.06600
C1281       C  0.74393526  0.88394368  0.20572591    -0.20200
C1282       C  0.74580357  0.88572251  0.65782673     0.79400
N1283       N  0.74212700  0.85714330  0.63440897    -0.78900
C1284       C  0.74125054  0.85801428  0.59112614     0.81800
N1285       N  0.74346248  0.88726412  0.57160682    -0.78900
C1286       C  0.74696137  0.91588987  0.59448665     0.81900
N1287       N  0.74747453  0.91492436  0.63793902    -0.80600
C1288       C  0.73751300  0.86888513  0.87084049     0.79400
N1289       N  0.73180556  0.89339054  0.89231307    -0.78900
C1290       C  0.72791434  0.89139407  0.93540662     0.81800
N1291       N  0.73122086  0.86573539  0.95696932    -0.78900
C1292       C  0.73767103  0.84161320  0.93596516     0.81900
N1293       N  0.74012747  0.84265201  0.89261472    -0.80600
C1294       C  0.57527956  0.88062974  0.87938677     0.79400
N1295       N  0.55350687  0.84972415  0.90081461    -0.78900
C1296       C  0.55753115  0.84816836  0.94383006     0.81800
N1297       N  0.58267925  0.87759154  0.96498222    -0.78900
C1298       C  0.60374262  0.90867185  0.94425112     0.81900
N1299       N  0.60086279  0.90980512  0.90108725    -0.80600
C1300       C  0.57806757  0.88356712  0.66445617     0.79400
N1301       N  0.60898269  0.90539823  0.64307516    -0.78900
C1302       C  0.61061537  0.90134985  0.60007938     0.81800
N1303       N  0.58125977  0.87610981  0.57890318    -0.78900
C1304       C  0.55016514  0.85498700  0.59957325     0.81900
N1305       N  0.54895529  0.85790475  0.64272443    -0.80600
C1306       C  0.58974505  0.72092682  0.67285835     0.79400
N1307       N  0.56527275  0.72665739  0.65132118    -0.78900
C1308       C  0.56745580  0.73080667  0.60826573     0.81800
N1309       N  0.59329309  0.72775368  0.58679111    -0.78900
C1310       C  0.61739205  0.72128168  0.60785494     0.81900
N1311       N  0.61613923  0.71853911  0.65118035    -0.80600
C1312       C  0.57311885  0.71293782  0.88587592     0.79400
N1313       N  0.60175792  0.71666942  0.90924205    -0.78900
C1314       C  0.60098343  0.71764264  0.95252773     0.81800
N1315       N  0.57176762  0.71546476  0.97209327    -0.78900
C1316       C  0.54308764  0.71191452  0.94926189     0.81900
N1317       N  0.54395844  0.71130459  0.90581067    -0.80600
C1318       C  0.86094508  0.61447943  0.87705147     0.79400
N1319       N  0.88961882  0.64088943  0.89834671    -0.78900
C1320       C  0.88936282  0.64168177  0.94166861     0.81800
N1321       N  0.86016490  0.61693905  0.96316728    -0.78900
C1322       C  0.83145894  0.59100004  0.94177060     0.81900
N1323       N  0.83217913  0.58945419  0.89866892    -0.80600
C1324       C  0.84420835  0.59739891  0.66670007     0.79400
N1325       N  0.81782828  0.56882108  0.64524933    -0.78900
C1326       C  0.81717005  0.56919715  0.60193109     0.81800
N1327       N  0.84201108  0.59844328  0.58058029    -0.78900
C1328       C  0.86793022  0.62707196  0.60212270     0.81900
N1329       N  0.86933968  0.62621792  0.64523492    -0.80600
C1330       C  0.85656536  0.77441244  0.66070937     0.79400
N1331       N  0.88174178  0.77041200  0.63857709    -0.78900
C1332       C  0.88199138  0.77128720  0.59517640     0.81800
N1333       N  0.85620766  0.77548675  0.57385244    -0.78900
C1334       C  0.83031053  0.77879868  0.59572082     0.81900
N1335       N  0.83050379  0.77772340  0.63924710    -0.80600
C1336       C  0.85738487  0.77179248  0.87609965     0.79400
N1337       N  0.87874190  0.76258261  0.89940324    -0.78900
C1338       C  0.87580330  0.76033413  0.94276765     0.81800
N1339       N  0.85214963  0.76812925  0.96246809    -0.78900
C1340       C  0.83132848  0.77804724  0.93963778     0.81900
N1341       N  0.83323121  0.77876171  0.89627300    -0.80600
C1342       C  0.68477488  0.60258827  0.88293598     0.79400
N1343       N  0.68160887  0.62872871  0.90439094    -0.78900
C1344       C  0.68048721  0.62887623  0.94791792     0.81800
N1345       N  0.68361671  0.60286635  0.96978232    -0.78900
C1346       C  0.68766018  0.57700364  0.94845350     0.81900
N1347       N  0.68857810  0.57729253  0.90506524    -0.80600
C1348       C  0.68741875  0.60142029  0.66761757     0.79400
N1349       N  0.68059129  0.62570893  0.64752663    -0.78900
C1350       C  0.68134257  0.62771896  0.60417362     0.81800
N1351       N  0.69116037  0.60686405  0.58127437    -0.78900
C1352       C  0.69881469  0.58307125  0.60089404     0.81900
N1353       N  0.69651759  0.58002124  0.64424908    -0.80600
O1354       O  0.71434251  0.78152980  0.95696475    -0.81000
O1355       O  0.70737705  0.69183435  0.95712099    -0.81000
O1356       O  0.80638540  0.79526930  0.99707050    -0.81000
O1357       O  0.64773958  0.70916246  0.98575028    -0.80900
O1358       O  0.77023059  0.75479317  0.95160457    -0.81100
O1359       O  0.64868250  0.76132498  0.99273927    -0.81000
O1360       O  0.67089968  0.66026869  0.00718457    -0.81000
O1361       O  0.76018925  0.82340627  0.99394390    -0.81000
C1362       C  0.73927057  0.81369140  0.96130524     1.08700
C1363       C  0.68456022  0.66145076  0.97073373     1.08600
C1364       C  0.80131549  0.77874145  0.96153626     1.08700
C1365       C  0.63386124  0.72973479  0.97795181     1.08600
O1366       O  0.67751940  0.74475679  0.58685756    -0.81000
O1367       O  0.76734445  0.75183536  0.58660702    -0.78900
O1368       O  0.74980997  0.81136556  0.55782994    -0.81000
O1369       O  0.66400147  0.65267068  0.54684280    -0.81000
O1370       O  0.70450698  0.68884267  0.59226562    -0.81000
O1371       O  0.69758178  0.81032464  0.55090249    -0.81000
O1372       O  0.63570161  0.69875271  0.55002758    -0.80900
O1373       O  0.79880958  0.78834454  0.53649650    -0.81000
Co1374     Co  0.69976137  0.76937141  0.53313919     1.51500
Co1375     Co  0.74121255  0.71003726  0.54799969     1.51700
Co1376     Co  0.75303504  0.78091186  0.50567169     1.51600
Co1377     Co  0.66437614  0.68949616  0.50499394     1.51500
O1378       O  0.71306661  0.73165186  0.52233758    -1.42900
C1379       C  0.64538240  0.71974456  0.58258524     1.08700
C1380       C  0.79769568  0.77470162  0.57295466     1.08700
C1381       C  0.72919374  0.82518583  0.56565158     1.08700
C1382       C  0.68059583  0.65774323  0.58233442     1.08700
O1383       O  0.52613081  0.79622338  0.57618775    -0.81000
O1384       O  0.88732484  0.66806691  0.54468948    -0.81000
O1385       O  0.92968843  0.78609913  0.54606524    -0.81000
O1386       O  0.00187634  0.70704533  0.59184018    -0.80900
O1387       O  0.90412910  0.73267458  0.57168846    -0.81100
O1388       O  0.54863331  0.75388841  0.55030894    -0.81000
O1389       O  0.92789904  0.67176132  0.59059069    -0.81000
O1390       O  0.00376098  0.81960292  0.54865124    -0.81000
C1391       C  0.52295097  0.82356616  0.57620409     1.08700
C1392       C  0.89549340  0.65760204  0.57867281     1.08600
C1393       C  0.90710940  0.76334116  0.57101557     1.08700
C1394       C  0.54029626  0.73524759  0.58422429     1.08600
O1395       O  0.50605899  0.73711799  0.96753855    -0.81000
O1396       O  0.88116564  0.72307307  0.99534439    -0.81000
O1397       O  0.01031871  0.79925234  0.96575047    -0.81000
O1398       O  0.93027989  0.65844879  0.99838309    -0.81000
O1399       O  0.92748485  0.70138355  0.96376439    -0.81000
O1400       O  0.55234356  0.80560257  0.99567569    -0.81000
O1401       O  0.00408455  0.69130600  0.99986889    -0.80900
O1402       O  0.93167738  0.76456339  0.96594549    -0.81000
Co1403     Co  0.51681748  0.77075464  0.52191615     1.51500
Co1404     Co  0.91740408  0.71674372  0.51854609     1.51700
Co1405     Co  0.96600601  0.78225962  0.50860445     1.51600
Co1406     Co  0.96503884  0.68433396  0.54624959     1.51500
O1407       O  0.96513148  0.73319753  0.53831135    -1.42900
C1408       C  0.51379425  0.71245243  0.97328025     1.08700
C1409       C  0.89701813  0.74874265  0.96913384     1.08700
C1410       C  0.53639823  0.81512287  0.96852964     1.08700
C1411       C  0.91943475  0.66890237  0.96656555     1.08700
O1412       O  0.72180173  0.95298607  0.57631498    -0.81000
O1413       O  0.73587712  0.57764512  0.54811871    -0.81000
O1414       O  0.80037460  0.52833733  0.54513896    -0.81000
O1415       O  0.66239645  0.95710978  0.57975900    -0.80900
O1416       O  0.75747062  0.53123676  0.57964594    -0.81100
O1417       O  0.65328967  0.90656849  0.54841469    -0.81000
O1418       O  0.69446297  0.52716365  0.57765180    -0.81000
O1419       O  0.76482957  0.95551570  0.53665830    -0.81000
C1420       C  0.74641823  0.94519487  0.57049486     1.08700
C1421       C  0.71029548  0.56182118  0.57444570     1.08600
C1422       C  0.78993722  0.53922114  0.57691208     1.08700
C1423       C  0.64367918  0.92252305  0.57541468     1.08600
O1424       O  0.66251102  0.93275951  0.96753148    -0.81000
O1425       O  0.79061176  0.57162895  0.99932367    -0.81000
O1426       O  0.74115110  0.95104871  0.94854634    -0.81000
O1427       O  0.67258660  0.52911730  0.99737123    -0.81000
O1428       O  0.72612074  0.55476120  0.97209465    -0.81000
O1429       O  0.70482855  0.91021713  0.99331951    -0.81000
O1430       O  0.63321455  0.95708020  0.99436368    -0.80900
O1431       O  0.78694642  0.53106236  0.95347419    -0.81000
Co1432     Co  0.69310502  0.94678411  0.52331488     1.51500
Co1433     Co  0.73828411  0.53745916  0.52454013     1.51700
Co1434     Co  0.77075340  0.99302788  0.49376588     1.51600
Co1435     Co  0.67634470  0.99720929  0.53449692     1.51500
O1436       O  0.72349594  0.99503441  0.50433187    -1.42900
C1437       C  0.63515525  0.93591218  0.96755810     1.08700
C1438       C  0.80105134  0.56346193  0.96534112     1.08700
C1439       C  0.72343945  0.91854364  0.95938389     1.08700
C1440       C  0.69545533  0.55177713  0.97259095     1.08700
C1441       C  0.68687505  0.59998575  0.71381871    -0.19300
C1442       C  0.68651580  0.60032709  0.75255936     0.04700
C1443       C  0.68603536  0.60149430  0.79799793     0.06600
C1444       C  0.68552023  0.60238275  0.83671225    -0.20200
C1445       C  0.85873137  0.77230062  0.82988443    -0.19300
C1446       C  0.85845599  0.77264206  0.79113494     0.04700
C1447       C  0.85747505  0.77312577  0.74567556     0.06600
C1448       C  0.85673880  0.77365625  0.70694672    -0.20200
C1449       C  0.86063704  0.61227603  0.83171406    -0.19300
C1450       C  0.85690061  0.60759875  0.79386048     0.04700
C1451       C  0.85066629  0.60126613  0.74993753     0.06600
C1452       C  0.84618664  0.59758339  0.71205400    -0.20200
C1453       C  0.58738483  0.71751488  0.71861312    -0.19300
C1454       C  0.58365476  0.71534977  0.75691132     0.04700
C1455       C  0.57855687  0.71362564  0.80167633     0.06600
C1456       C  0.57494376  0.71286116  0.83997827    -0.20200
C1457       C  0.57358064  0.88165445  0.83328846    -0.19300
C1458       C  0.57402092  0.88311158  0.79461092     0.04700
C1459       C  0.57558702  0.88475307  0.74923713     0.06600
C1460       C  0.57700861  0.88524433  0.71055630    -0.20200
C1461       C  0.74075795  0.87109474  0.82506364    -0.19300
C1462       C  0.74292773  0.87479996  0.78676030     0.04700
C1463       C  0.74479099  0.87999814  0.74200649     0.06600
C1464       C  0.74571557  0.88375331  0.70371887    -0.20200
loop_ 
_geom_bond_atom_site_label_1 
_geom_bond_atom_site_label_2 
_geom_bond_distance 
_geom_bond_site_symmetry_2 
_ccdc_geom_bond_type 
C1            N2   1.358       .  A
C1            N6   1.359       .  A
C1          C183   1.432       .  S
N2            C3   1.357       .  A
C3            N4   1.362       .  A
C3          C100   1.479       .  S
N4            C5   1.366       .  A
C5            N6   1.356       .  A
C5          C139   1.470       .  S
C7            N8   1.361       .  A
C7           N12   1.363       .  A
C7          C180   1.433       .  S
N8            C9   1.357       .  A
C9           N10   1.344       .  A
C9          C158   1.448       .  S
N10          C11   1.343       .  A
C11          N12   1.358       .  A
C11          C81   1.444       .  S
C13          N14   1.363       .  A
C13          N18   1.362       .  A
C13         C176   1.436       .  S
N14          C15   1.359       .  A
C15          N16   1.350       .  A
C15         C129   1.460       .  S
N16          C17   1.350       .  A
C17          N18   1.357       .  A
C17         C156   1.454       .  S
C19          N20   1.363       .  A
C19          N24   1.362       .  A
C19         C179   1.436       .  S
N20          C21   1.359       .  A
C21          N22   1.350       .  A
C21         C142   1.461       .  S
N22          C23   1.351       .  A
C23          N24   1.357       .  A
C23         C110   1.454       .  S
C25          N26   1.361       .  A
C25          N30   1.363       .  A
C25         C172   1.433       .  S
N26          C27   1.357       .  A
C27          N28   1.344       .  A
C27         C113   1.448       .  S
N28          C29   1.344       .  A
C29          N30   1.358       .  A
C29          C98   1.444       .  S
C31          N32   1.358       .  A
C31          N36   1.358       .  A
C31         C175   1.432       .  S
N32          C33   1.357       .  A
C33          N34   1.361       .  A
C33          C84   1.478       .  S
N34          C35   1.365       .  A
C35          N36   1.356       .  A
C35         C127   1.469       .  S
C37          N38   1.364       .  A
C37          N42   1.358       .  A
C37         C168   1.440       .  S
N38          C39   1.362       .  A
C39          N40   1.359       .  A
C39         C130   1.470       .  S
N40          C41   1.355       .  A
C41          N42   1.356       .  A
C41         C157   1.467       .  S
C43          N44   1.364       .  A
C43          N48   1.358       .  A
C43         C171   1.440       .  S
N44          C45   1.362       .  A
C45          N46   1.359       .  A
C45         C141   1.470       .  S
N46          C47   1.355       .  A
C47          N48   1.356       .  A
C47         C111   1.467       .  S
C49          N50   1.362       .  A
C49          N54   1.360       .  A
C49         C167   1.438       .  S
N50          C51   1.359       .  A
C51          N52   1.348       .  A
C51         C112   1.445       .  S
N52          C53   1.345       .  A
C53          N54   1.359       .  A
C53          C99   1.455       .  S
C55          N56   1.366       .  A
C55          N60   1.370       .  A
C55         C164   1.439       .  S
N56          C57   1.357       .  A
C57          N58   1.342       .  A
C57         C128   1.456       .  S
N58          C59   1.343       .  A
C59          N60   1.363       .  A
C59          C83   1.467       .  S
C61          N62   1.360       .  A
C61          N66   1.362       .  A
C61         C163   1.438       .  S
N62          C63   1.359       .  A
C63          N64   1.345       .  A
C63          C82   1.454       .  S
N64          C65   1.348       .  A
C65          N66   1.359       .  A
C65         C159   1.444       .  S
C67          N68   1.370       .  A
C67          N72   1.366       .  A
C67         C160   1.438       .  S
N68          C69   1.362       .  A
C69          N70   1.343       .  A
C69         C101   1.466       .  S
N70          C71   1.342       .  A
C71          N72   1.357       .  A
C71         C140   1.456       .  S
O73          C81   1.296       .  A
O73        Co276   2.097       .  S
O74          C82   1.278       .  A
O74        Co277   2.035       .  S
O75          C83   1.266       .  A
O75        Co278   1.986       .  S
O76          C84   1.256       .  A
O76        Co279   1.981       .  S
O77          C83   1.277       .  A
O77        Co277   2.003       .  S
O78          C84   1.264       .  A
O78        Co276   2.028       .  S
O79          C82   1.255       .  A
O79        Co279   1.950       .  S
O80          C81   1.269       .  A
O80        Co278   1.878       .  S
O85          C98   1.296       .  A
O85         Co93   2.096       .  S
O86          C99   1.279       .  A
O86         Co94   2.036   1_554  S
O87         C100   1.256       .  A
O87         Co95   1.981       .  S
O88         C101   1.266       .  A
O88         Co96   1.986       .  S
O89         C101   1.277       .  A
O89         Co94   2.002   1_554  S
O90         C100   1.264       .  A
O90         Co93   2.029       .  S
O91          C98   1.269       .  A
O91         Co96   1.879       .  S
O92          C99   1.255       .  A
O92         Co95   1.950       .  S
Co93        O256   1.976   1_554  S
Co93        O261   1.888   1_554  S
Co93         O97   1.984       .  S
Co94        O257   1.976       .  S
Co94        O260   1.958       .  S
Co94         O97   2.003   1_556  S
Co95        O258   2.044   1_554  S
Co95        O263   2.013   1_554  S
Co95         O97   2.029       .  S
Co96        O259   2.123   1_554  S
Co96        O262   2.040       .  S
Co96         O97   2.013       .  S
O102        C110   1.238       .  A
O102       Co122   1.963       .  S
O103        C111   1.270       .  A
O103       Co123   2.020       .  S
O104        C112   1.256       .  A
O104       Co124   2.008       .  S
O105        C845   1.261       .  A
O105       Co125   1.981       .  S
O106        C112   1.237       .  A
O106       Co123   1.947       .  S
O107        C113   1.268       .  A
O107       Co122   1.991       .  S
O108        C111   1.262       .  A
O108       Co125   1.983       .  S
O109        C842   1.253       .  A
O109       Co124   2.006       .  S
C110        O841   1.251       .  A
C113        O837   1.260       .  A
O114        C127   1.254       .  A
O114       Co305   1.978       .  S
O115        C128   1.267       .  A
O115       Co306   1.859       .  S
O116        C861   1.295       .  A
O116       Co307   2.071       .  S
O117        C130   1.267       .  A
O117       Co308   2.024       .  S
O118        C130   1.254       .  A
O118       Co306   1.986       .  S
O119        C129   1.271       .  A
O119       Co305   1.898       .  S
O120        C859   1.267       .  A
O120       Co308   2.023       .  S
O121        C128   1.300       .  A
O121       Co307   2.098       .  S
Co122       O297   1.988   1_554  S
Co122       O302   1.900   1_554  S
Co122       O858   1.894   1_455  S
Co123       O298   1.916   1_554  S
Co123       O301   1.981   1_554  S
Co123       O126   1.907       .  S
Co124       O299   2.068   1_554  S
Co124       O304   2.066   1_554  S
Co124       O126   2.266       .  S
Co125       O300   2.016   1_554  S
Co125       O303   2.014       .  S
Co125       O126   2.076       .  S
O126       Co854   1.908       .  S
C127        O852   1.267       .  A
C129        O848   1.295       .  A
O131        C139   1.255       .  A
O131       Co151   1.979       .  S
O132        C140   1.267       .  A
O132       Co152   1.858       .  S
O133        C141   1.267       .  A
O133       Co519   2.025   1_544  S
O134        C142   1.295       .  A
O134       Co154   2.071       .  S
O135        C141   1.253       .  A
O135       Co152   1.986       .  S
O136        C142   1.271       .  A
O136       Co151   1.898       .  S
O137        C140   1.300       .  A
O137       Co520   2.098   1_545  S
O138        C139   1.267       .  A
O138       Co153   2.026       .  S
O143        C156   1.238       .  A
O143       Co334   1.963       .  S
O144        C157   1.270       .  A
O144       Co335   2.021       .  S
O145        C158   1.260       .  A
O145       Co336   1.979       .  S
O146        C159   1.256       .  A
O146       Co703   2.006   1_545  S
O147        C159   1.238       .  A
O147       Co335   1.946       .  S
O148        C158   1.268       .  A
O148       Co334   1.991       .  S
O149        C156   1.251       .  A
O149       Co337   2.001       .  S
O150        C157   1.262       .  A
O150       Co702   1.983   1_545  S
Co151       O326   1.954   1_554  S
Co151       O331   2.004   1_554  S
Co151       O155   1.895       .  S
Co152       O327   2.019   1_554  S
Co152       O330   1.983   1_554  S
Co152       O521   1.898   1_545  S
Co153       O499   2.028       .  S
Co153       O328   1.987   1_554  S
Co153       O699   1.981   1_554  S
Co153       O155   2.085       .  S
Co154       O503   2.067       .  S
Co154       O695   2.013   1_554  S
Co154       O332   2.013   1_554  S
Co154       O155   2.271       .  S
O155       Co518   1.915       .  S
C160        C161   1.207       .  T
C161        C162   1.414       .  S
C162        C163   1.207       .  T
C164        C165   1.207       .  T
C165        C166   1.415       .  S
C166        C167   1.207       .  T
C168        C169   1.209       .  T
C169        C170   1.417       .  S
C170        C171   1.209       .  T
C172        C173   1.204       .  T
C173        C174   1.409       .  S
C174        C175   1.204       .  T
C176        C177   1.206       .  T
C177        C178   1.413       .  S
C178        C179   1.206       .  T
C180        C181   1.204       .  T
C181        C182   1.409       .  S
C182        C183   1.204       .  T
C184        N185   1.361       .  A
C184        N189   1.363       .  A
C184        C366   1.435       .  S
N185        C186   1.356       .  A
C186        N187   1.356       .  A
C186        C283   1.468       .  S
N187        C188   1.359       .  A
C188        N189   1.359       .  A
C188        C322   1.470       .  S
C190        N191   1.362       .  A
C190        N195   1.364       .  A
C190        C363   1.435       .  S
N191        C192   1.357       .  A
C192        N193   1.347       .  A
C192        C341   1.460       .  S
N193        C194   1.351       .  A
C194        N195   1.359       .  A
C194        C264   1.455       .  S
C196        N197   1.361       .  A
C196        N201   1.358       .  A
C196        C359   1.429       .  S
N197        C198   1.358       .  A
C198        N199   1.354       .  A
C198        C312   1.461       .  S
N199        C200   1.354       .  A
C200        N201   1.353       .  A
C200        C339   1.455       .  S
C202        N203   1.361       .  A
C202        N207   1.358       .  A
C202        C362   1.429       .  S
N203        C204   1.358       .  A
C204        N205   1.354       .  A
C204        C325   1.461       .  S
N205        C206   1.354       .  A
C206        N207   1.353       .  A
C206        C293   1.454       .  S
C208        N209   1.362       .  A
C208        N213   1.364       .  A
C208        C355   1.436       .  S
N209        C210   1.357       .  A
C210        N211   1.347       .  A
C210        C296   1.460       .  S
N211        C212   1.350       .  A
C212        N213   1.359       .  A
C212        C281   1.455       .  S
C214        N215   1.361       .  A
C214        N219   1.363       .  A
C214        C358   1.436       .  S
N215        C216   1.356       .  A
C216        N217   1.356       .  A
C216        C267   1.468       .  S
N217        C218   1.359       .  A
C218        N219   1.358       .  A
C218        C310   1.469       .  S
C220        N221   1.361       .  A
C220        N225   1.356       .  A
C220        C351   1.429       .  S
N221        C222   1.358       .  A
C222        N223   1.360       .  A
C222        C313   1.462       .  S
N223        C224   1.355       .  A
C224        N225   1.354       .  A
C224        C340   1.465       .  S
C226        N227   1.361       .  A
C226        N231   1.356       .  A
C226        C354   1.429       .  S
N227        C228   1.358       .  A
C228        N229   1.360       .  A
C228        C324   1.462       .  S
N229        C230   1.355       .  A
C230        N231   1.354       .  A
C230        C294   1.466       .  S
C232        N233   1.360       .  A
C232        N237   1.361       .  A
C232        C350   1.444       .  S
N233        C234   1.358       .  A
C234        N235   1.364       .  A
C234        C295   1.474       .  S
N235        C236   1.362       .  A
C236        N237   1.361       .  A
C236        C282   1.480       .  S
C238        N239   1.364       .  A
C238        N243   1.362       .  A
C238        C347   1.444       .  S
N239        C240   1.361       .  A
C240        N241   1.356       .  A
C240        C311   1.472       .  S
N241        C242   1.357       .  A
C242        N243   1.359       .  A
C242        C266   1.466       .  S
C244        N245   1.362       .  A
C244        N249   1.360       .  A
C244        C346   1.444       .  S
N245        C246   1.362       .  A
C246        N247   1.362       .  A
C246        C265   1.481       .  S
N247        C248   1.364       .  A
C248        N249   1.358       .  A
C248        C342   1.474       .  S
C250        N251   1.362       .  A
C250        N255   1.364       .  A
C250        C343   1.444       .  S
N251        C252   1.359       .  A
C252        N253   1.357       .  A
C252        C284   1.467       .  S
N253        C254   1.356       .  A
C254        N255   1.362       .  A
C254        C323   1.473       .  S
O256        C264   1.268       .  A
O257        C265   1.257       .  A
O258        C266   1.274       .  A
O259        C267   1.299       .  A
O260        C266   1.252       .  A
O261        C267   1.263       .  A
O262        C265   1.270   1_554  A
O263        C264   1.278       .  A
O268        C281   1.268       .  A
O268       Co276   1.976       .  S
O269        C282   1.257       .  A
O269       Co277   1.975       .  S
O270        C283   1.299       .  A
O270       Co278   2.124       .  S
O271        C284   1.274       .  A
O271       Co279   2.044       .  S
O272        C284   1.253       .  A
O272       Co277   1.958       .  S
O273        C283   1.263       .  A
O273       Co276   1.888       .  S
O274        C281   1.278       .  A
O274       Co279   2.013       .  S
O275        C282   1.270       .  A
O275       Co278   2.040       .  S
Co276       O280   1.983       .  S
Co277       O280   2.003       .  S
Co278       O280   2.013       .  S
Co279       O280   2.029       .  S
O285        C293   1.236       .  A
O285       Co305   1.954       .  S
O286        C294   1.268       .  A
O286       Co306   2.020       .  S
O287        C295   1.254       .  A
O287       Co307   2.003       .  S
O288       C1028   1.261       .  A
O288       Co308   1.985       .  S
O289        C295   1.252       .  A
O289       Co306   1.983       .  S
O290        C296   1.269       .  A
O290       Co305   2.004       .  S
O291        C294   1.260       .  A
O291       Co308   1.975       .  S
O292       C1025   1.260       .  A
O292       Co307   2.031       .  S
C293       O1024   1.253       .  A
C296       O1020   1.262       .  A
O297        C310   1.258       .  A
O298        C311   1.272       .  A
O299       C1044   1.293       .  A
O300        C313   1.269       .  A
O301        C313   1.258       .  A
O302        C312   1.271       .  A
O303       C1042   1.267   1_554  A
O304        C311   1.292       .  A
Co305      O1041   1.893   1_455  S
Co306       O309   1.900       .  S
Co307       O309   2.276       .  S
Co308       O309   2.096       .  S
O309      Co1037   1.903       .  S
C310       O1035   1.267   1_556  A
C312       O1031   1.294       .  A
O314        C322   1.258       .  A
O314       Co334   1.988       .  S
O315        C323   1.272       .  A
O315       Co335   1.916       .  S
O316        C324   1.269       .  A
O316       Co702   2.016   1_545  S
O317        C325   1.295       .  A
O317       Co337   2.070       .  S
O318        C324   1.258       .  A
O318       Co335   1.981       .  S
O319        C325   1.271       .  A
O319       Co334   1.899       .  S
O320        C323   1.292       .  A
O320       Co703   2.066   1_545  S
O321        C322   1.268       .  A
O321       Co336   2.022       .  S
O326        C339   1.236       .  A
O327        C340   1.268       .  A
O328        C341   1.263       .  A
O329        C342   1.254       .  A
O329       Co520   2.003   1_546  S
O330        C342   1.252       .  A
O331        C341   1.269       .  A
O332        C339   1.253       .  A
O333        C340   1.260       .  A
O333       Co519   1.976   1_545  S
Co334       O338   1.893       .  S
Co335       O704   1.909   1_545  S
Co336       O682   2.013       .  S
Co336       O516   1.978       .  S
Co336       O338   2.078       .  S
Co337       O686   2.061       .  S
Co337       O512   2.003       .  S
Co337       O338   2.264       .  S
O338       Co701   1.908       .  S
C343        C344   1.211       .  T
C344        C345   1.420       .  S
C345        C346   1.211       .  T
C347        C348   1.211       .  T
C348        C349   1.420       .  S
C349        C350   1.211       .  T
C351        C352   1.202       .  T
C352        C353   1.406       .  S
C353        C354   1.202       .  T
C355        C356   1.206       .  T
C356        C357   1.412       .  S
C357        C358   1.206       .  T
C359        C360   1.202       .  T
C360        C361   1.406       .  S
C361        C362   1.202       .  T
C363        C364   1.205       .  T
C364        C365   1.412       .  S
C365        C366   1.206       .  T
C367        N368   1.362       .  A
C367        N372   1.364       .  A
C367        C549   1.440       .  S
N368        C369   1.357       .  A
C369        N370   1.357       .  A
C369        C466   1.470       .  S
N370        C371   1.360       .  A
C371        N372   1.360       .  A
C371        C505   1.474       .  S
C373        N374   1.362       .  A
C373        N378   1.363       .  A
C373        C546   1.440       .  S
N374        C375   1.359       .  A
C375        N376   1.346       .  A
C375        C524   1.456       .  S
N376        C377   1.346       .  A
C377        N378   1.359       .  A
C377        C447   1.447       .  S
C379        N380   1.366       .  A
C379        N384   1.362       .  A
C379        C542   1.438       .  S
N380        C381   1.361       .  A
C381        N382   1.351       .  A
C381        C495   1.466       .  S
N382        C383   1.350       .  A
C383        N384   1.356       .  A
C383        C522   1.456       .  S
C385        N386   1.365       .  A
C385        N390   1.362       .  A
C385        C545   1.438       .  S
N386        C387   1.361       .  A
C387        N388   1.352       .  A
C387        C508   1.468       .  S
N388        C389   1.352       .  A
C389        N390   1.356       .  A
C389        C476   1.457       .  S
C391        N392   1.358       .  A
C391        N396   1.363       .  A
C391        C538   1.434       .  S
N392        C393   1.355       .  A
C393        N394   1.351       .  A
C393        C479   1.459       .  S
N394        C395   1.355       .  A
C395        N396   1.360       .  A
C395        C464   1.458       .  S
C397        N398   1.357       .  A
C397        N402   1.362       .  A
C397        C541   1.434       .  S
N398        C399   1.354       .  A
C399        N400   1.361       .  A
C399        C450   1.476       .  S
N400        C401   1.364       .  A
C401        N402   1.360       .  A
C401        C493   1.476       .  S
C403        N404   1.364       .  A
C403        N408   1.356       .  A
C403        C534   1.435       .  S
N404        C405   1.362       .  A
C405        N406   1.357       .  A
C405        C496   1.463       .  S
N406        C407   1.352       .  A
C407        N408   1.353       .  A
C407        C523   1.458       .  S
C409        N410   1.365       .  A
C409        N414   1.355       .  A
C409        C537   1.435       .  S
N410        C411   1.362       .  A
C411        N412   1.363       .  A
C411        C507   1.476       .  S
N412        C413   1.359       .  A
C413        N414   1.352       .  A
C413        C477   1.469       .  S
C415        N416   1.361       .  A
C415        N420   1.361       .  A
C415        C533   1.444       .  S
N416        C417   1.359       .  A
C417        N418   1.363       .  A
C417        C478   1.473       .  S
N418        C419   1.361       .  A
C419        N420   1.361       .  A
C419        C465   1.479       .  S
C421        N422   1.370       .  A
C421        N426   1.369       .  A
C421        C530   1.443       .  S
N422        C423   1.359       .  A
C423        N424   1.347       .  A
C423        C494   1.467       .  S
N424        C425   1.346       .  A
C425        N426   1.359       .  A
C425        C449   1.470       .  S
C427        N428   1.364       .  A
C427        N432   1.362       .  A
C427        C529   1.439       .  S
N428        C429   1.361       .  A
C429        N430   1.344       .  A
C429        C448   1.459       .  S
N430        C431   1.345       .  A
C431        N432   1.357       .  A
C431        C525   1.443       .  S
C433        N434   1.361       .  A
C433        N438   1.360       .  A
C433        C526   1.438       .  S
N434        C435   1.359       .  A
C435        N436   1.359       .  A
C435        C467   1.467       .  S
N436        C437   1.358       .  A
C437        N438   1.358       .  A
C437        C506   1.469       .  S
O439        C447   1.293       .  A
O439       Co642   2.087       .  S
O440        C448   1.279       .  A
O440       Co643   2.028       .  S
O441        C449   1.269       .  A
O441       Co644   1.987       .  S
O442        C450   1.259       .  A
O442       Co645   1.987       .  S
O443        C449   1.276       .  A
O443       Co643   2.008       .  S
O444        C450   1.261       .  A
O444       Co642   2.019       .  S
O445        C448   1.259       .  A
O445       Co645   1.961       .  S
O446        C447   1.270       .  A
O446       Co644   1.887       .  S
O451        C464   1.266       .  A
O451       Co459   1.970       .  S
O452        C465   1.257       .  A
O452       Co460   1.977       .  S
O453        C466   1.298       .  A
O453       Co461   2.127       .  S
O454        C467   1.273       .  A
O454       Co462   2.043       .  S
O455        C467   1.252       .  A
O455       Co460   1.958       .  S
O456        C466   1.262       .  A
O456       Co459   1.890       .  S
O457        C464   1.279       .  A
O457       Co462   2.025       .  S
O458        C465   1.270       .  A
O458       Co461   2.038       .  S
Co459       O622   2.097   1_554  S
Co459       O627   2.017       .  S
Co459       O463   1.982       .  S
Co460       O623   2.037       .  S
Co460       O626   2.003       .  S
Co460       O463   2.000       .  S
Co461       O624   1.984   1_554  S
Co461       O629   1.886   1_554  S
Co461       O463   2.018       .  S
Co462       O625   1.984   1_554  S
Co462       O628   1.964   1_554  S
Co462       O463   2.042       .  S
O468        C476   1.238       .  A
O468       Co488   1.952       .  S
O469        C477   1.268       .  A
O469       Co489   2.021       .  S
O470        C478   1.255       .  A
O470       Co490   2.007       .  S
O471       C1211   1.261       .  A
O471       Co491   1.975       .  S
O472        C478   1.250       .  A
O472       Co489   1.977       .  S
O473        C479   1.271       .  A
O473       Co488   2.017       .  S
O474        C477   1.263       .  A
O474       Co491   1.982       .  S
O475       C1208   1.262       .  A
O475       Co490   2.035       .  S
C476       O1207   1.255       .  A
C479       O1203   1.261       .  A
O480        C493   1.257       .  A
O480       Co671   1.988       .  S
O481        C494   1.264       .  A
O481       Co672   1.858       .  S
O482       C1227   1.297       .  A
O482       Co673   2.079       .  S
O483        C496   1.267       .  A
O483       Co674   2.017       .  S
O484        C496   1.253       .  A
O484       Co672   1.984       .  S
O485        C495   1.270       .  A
O485       Co671   1.889       .  S
O486       C1225   1.266       .  A
O486       Co674   2.020       .  S
O487        C494   1.304       .  A
O487       Co673   2.115       .  S
Co488       O663   1.982   1_554  S
Co488       O668   1.901   1_554  S
Co488      O1224   1.908   1_455  S
Co489       O664   1.853   1_554  S
Co489       O667   1.984   1_554  S
Co489       O492   1.898       .  S
Co490       O665   2.077   1_554  S
Co490       O670   2.107   1_554  S
Co490       O492   2.270       .  S
Co491       O666   2.007       .  S
Co491       O669   2.014       .  S
Co491       O492   2.088       .  S
O492      Co1220   1.918       .  S
C493       O1218   1.267       .  A
C495       O1214   1.298       .  A
O497        C505   1.258       .  A
O497       Co517   1.993       .  S
O498        C506   1.271       .  A
O498       Co518   1.912       .  S
O499        C507   1.271       .  A
O500        C508   1.295       .  A
O500       Co520   2.072       .  S
O501        C507   1.260       .  A
O501       Co518   1.987       .  S
O502        C508   1.271       .  A
O502       Co517   1.902       .  S
O503        C506   1.293       .  A
O504        C505   1.267       .  A
O504       Co519   2.023   1_554  S
O509        C522   1.239       .  A
O509       Co700   1.960       .  S
O510        C523   1.268       .  A
O510       Co701   2.012       .  S
O511        C524   1.261       .  A
O511       Co702   1.981       .  S
O512        C525   1.256       .  A
O513        C525   1.238       .  A
O513       Co701   1.948       .  S
O514        C524   1.272       .  A
O514       Co700   2.005       .  S
O515        C522   1.253       .  A
O515       Co703   2.007       .  S
O516        C523   1.261       .  A
Co517       O692   1.954   1_554  S
Co517       O697   2.004   1_554  S
Co517       O521   1.903       .  S
Co518       O693   2.011       .  S
Co518       O696   1.949   1_554  S
Co519       O694   1.984       .  S
Co519       O521   2.096   1_556  S
Co520       O698   2.031   1_554  S
Co520       O521   2.276       .  S
C526        C527   1.207       .  T
C527        C528   1.415       .  S
C528        C529   1.207       .  T
C530        C531   1.211       .  T
C531        C532   1.420       .  S
C532        C533   1.211       .  T
C534        C535   1.206       .  T
C535        C536   1.412       .  S
C536        C537   1.206       .  T
C538        C539   1.205       .  T
C539        C540   1.411       .  S
C540        C541   1.205       .  T
C542        C543   1.207       .  T
C543        C544   1.415       .  S
C544        C545   1.207       .  T
C546        C547   1.208       .  T
C547        C548   1.416       .  S
C548        C549   1.208       .  T
C550        N551   1.364       .  A
C550        N555   1.363       .  A
C550        C732   1.440       .  S
N551        C552   1.360       .  A
C552        N553   1.353       .  A
C552        C649   1.468       .  S
N553        C554   1.356       .  A
C554        N555   1.358       .  A
C554        C688   1.466       .  S
C556        N557   1.363       .  A
C556        N561   1.362       .  A
C556        C729   1.440       .  S
N557        C558   1.360       .  A
C558        N559   1.349       .  A
C558        C707   1.460       .  S
N559        C560   1.348       .  A
C560        N561   1.358       .  A
C560        C630   1.451       .  S
C562        N563   1.365       .  A
C562        N567   1.366       .  A
C562        C725   1.449       .  S
N563        C564   1.361       .  A
C564        N565   1.352       .  A
C564        C678   1.468       .  S
N565        C566   1.352       .  A
C566        N567   1.362       .  A
C566        C705   1.464       .  S
C568        N569   1.364       .  A
C568        N573   1.365       .  A
C568        C728   1.448       .  S
N569        C570   1.361       .  A
C570        N571   1.355       .  A
C570        C691   1.472       .  S
N571        C572   1.356       .  A
C572        N573   1.362       .  A
C572        C659   1.466       .  S
C574        N575   1.357       .  A
C574        N579   1.361       .  A
C574        C721   1.429       .  S
N575        C576   1.354       .  A
C576        N577   1.355       .  A
C576        C662   1.464       .  S
N577        C578   1.358       .  A
C578        N579   1.358       .  A
C578        C647   1.462       .  S
C580        N581   1.357       .  A
C580        N585   1.360       .  A
C580        C724   1.429       .  S
N581        C582   1.354       .  A
C582        N583   1.358       .  A
C582        C633   1.472       .  S
N583        C584   1.362       .  A
C584        N585   1.357       .  A
C584        C676   1.468       .  S
C586        N587   1.360       .  A
C586        N591   1.357       .  A
C586        C717   1.428       .  S
N587        C588   1.358       .  A
C588        N589   1.358       .  A
C588        C679   1.459       .  S
N589        C590   1.353       .  A
C590        N591   1.354       .  A
C590        C706   1.460       .  S
C592        N593   1.361       .  A
C592        N597   1.358       .  A
C592        C720   1.428       .  S
N593        C594   1.357       .  A
C594        N595   1.358       .  A
C594        C690   1.461       .  S
N595        C596   1.354       .  A
C596        N597   1.354       .  A
C596        C660   1.465       .  S
C598        N599   1.360       .  A
C598        N603   1.360       .  A
C598        C716   1.441       .  S
N599        C600   1.358       .  A
C600        N601   1.366       .  A
C600        C661   1.475       .  S
N601        C602   1.364       .  A
C602        N603   1.360       .  A
C602        C648   1.484       .  S
C604        N605   1.369       .  A
C604        N609   1.370       .  A
C604        C713   1.441       .  S
N605        C606   1.358       .  A
C606        N607   1.342       .  A
C606        C677   1.459       .  S
N607        C608   1.343       .  A
C608        N609   1.360       .  A
C608        C632   1.466       .  S
C610        N611   1.363       .  A
C610        N615   1.362       .  A
C610        C712   1.438       .  S
N611        C612   1.360       .  A
C612        N613   1.350       .  A
C612        C631   1.465       .  S
N613        C614   1.352       .  A
C614        N615   1.357       .  A
C614        C708   1.452       .  S
C616        N617   1.360       .  A
C616        N621   1.361       .  A
C616        C709   1.438       .  S
N617        C618   1.358       .  A
C618        N619   1.359       .  A
C618        C650   1.465       .  S
N619        C620   1.357       .  A
C620        N621   1.358       .  A
C620        C689   1.470       .  S
O622        C630   1.295       .  A
O623        C631   1.279   1_554  A
O624        C632   1.267       .  A
O625        C633   1.258       .  A
O626        C632   1.277   1_554  A
O627        C633   1.263   1_554  A
O628        C631   1.261       .  A
O629        C630   1.270       .  A
O634        C647   1.267       .  A
O634       Co642   1.971       .  S
O635        C648   1.260       .  A
O635       Co643   1.982       .  S
O636        C649   1.297       .  A
O636       Co644   2.123       .  S
O637        C650   1.273       .  A
O637       Co645   2.045       .  S
O638        C650   1.251       .  A
O638       Co643   1.955       .  S
O639        C649   1.262       .  A
O639       Co642   1.888       .  S
O640        C647   1.279       .  A
O640       Co645   2.027       .  S
O641        C648   1.269       .  A
O641       Co644   2.038       .  S
Co642       O646   1.981       .  S
Co643       O646   2.002       .  S
Co644       O646   2.014       .  S
Co645       O646   2.048       .  S
O651        C659   1.238       .  A
O651       Co671   1.946       .  S
O652        C660   1.267       .  A
O652       Co672   2.016       .  S
O653        C661   1.256       .  A
O653       Co673   2.014       .  S
O654       C1394   1.261       .  A
O654       Co674   1.979       .  S
O655        C661   1.249       .  A
O655       Co672   1.974       .  S
O656        C662   1.269       .  A
O656       Co671   2.017       .  S
O657        C660   1.260       .  A
O657       Co674   1.980       .  S
O658       C1391   1.263       .  A
O658       Co673   2.035       .  S
C659       O1390   1.263       .  A
C662       O1386   1.262       .  A
O663        C676   1.258       .  A
O664        C677   1.265       .  A
O665       C1410   1.295       .  A
O666        C679   1.264   1_554  A
O667        C679   1.255       .  A
O668        C678   1.273       .  A
O669       C1408   1.267   1_554  A
O670        C677   1.302       .  A
Co671      O1407   1.905   1_455  S
Co672       O675   1.894       .  S
Co673       O675   2.277       .  S
Co674       O675   2.096       .  S
O675      Co1403   1.908       .  S
C676       O1401   1.267       .  A
C678       O1397   1.295       .  A
O680        C688   1.259       .  A
O680       Co700   1.987       .  S
O681        C689   1.272       .  A
O681       Co701   1.916       .  S
O682        C690   1.269       .  A
O683        C691   1.293       .  A
O683       Co703   2.067       .  S
O684        C690   1.258       .  A
O684       Co701   1.983       .  S
O685        C691   1.274       .  A
O685       Co700   1.914       .  S
O686        C689   1.291       .  A
O687        C688   1.267       .  A
O687       Co702   2.014       .  S
O692        C705   1.238       .  A
O693        C706   1.268   1_554  A
O694        C707   1.261       .  A
O695        C708   1.258       .  A
O696        C708   1.240       .  A
O697        C707   1.269       .  A
O698        C705   1.260       .  A
O699        C706   1.261       .  A
Co700       O704   1.907       .  S
Co702       O704   2.076       .  S
Co703       O704   2.266       .  S
C709        C710   1.207       .  T
C710        C711   1.414       .  S
C711        C712   1.207       .  T
C713        C714   1.209       .  T
C714        C715   1.417       .  S
C715        C716   1.209       .  T
C717        C718   1.201       .  T
C718        C719   1.405       .  S
C719        C720   1.201       .  T
C721        C722   1.202       .  T
C722        C723   1.406       .  S
C723        C724   1.202       .  T
C725        C726   1.214       .  T
C726        C727   1.425       .  S
C727        C728   1.213       .  T
C729        C730   1.208       .  T
C730        C731   1.416       .  S
C731        C732   1.208       .  T
C733        N734   1.357       .  A
C733        N738   1.362       .  A
C733        C915   1.433       .  S
N734        C735   1.354       .  A
C735        N736   1.361       .  A
C735        C832   1.476       .  S
N736        C737   1.365       .  A
C737        N738   1.360       .  A
C737        C871   1.476       .  S
C739        N740   1.358       .  A
C739        N744   1.362       .  A
C739        C912   1.433       .  S
N740        C741   1.355       .  A
C741        N742   1.351       .  A
C741        C890   1.460       .  S
N742        C743   1.355       .  A
C743        N744   1.359       .  A
C743        C813   1.458       .  S
C745        N746   1.365       .  A
C745        N750   1.362       .  A
C745        C908   1.438       .  S
N746        C747   1.361       .  A
C747        N748   1.352       .  A
C747        C861   1.468       .  S
N748        C749   1.353       .  A
C749        N750   1.356       .  A
C749        C888   1.457       .  S
C751        N752   1.366       .  A
C751        N756   1.362       .  A
C751        C911   1.438       .  S
N752        C753   1.361       .  A
C753        N754   1.351       .  A
C753        C874   1.465       .  S
N754        C755   1.349       .  A
C755        N756   1.356       .  A
C755        C842   1.455       .  S
C757        N758   1.362       .  A
C757        N762   1.364       .  A
C757        C904   1.440       .  S
N758        C759   1.359       .  A
C759        N760   1.345       .  A
C759        C845   1.456       .  S
N760        C761   1.346       .  A
C761        N762   1.360       .  A
C761        C830   1.446       .  S
C763        N764   1.362       .  A
C763        N768   1.364       .  A
C763        C907   1.440       .  S
N764        C765   1.357       .  A
C765        N766   1.357       .  A
C765        C816   1.470       .  S
N766        C767   1.360       .  A
C767        N768   1.360       .  A
C767        C859   1.474       .  S
C769        N770   1.365       .  A
C769        N774   1.355       .  A
C769        C900   1.435       .  S
N770        C771   1.362       .  A
C771        N772   1.363       .  A
C771        C862   1.476       .  S
N772        C773   1.359       .  A
C773        N774   1.352       .  A
C773        C889   1.469       .  S
C775        N776   1.364       .  A
C775        N780   1.356       .  A
C775        C903   1.435       .  S
N776        C777   1.362       .  A
C777        N778   1.356       .  A
C777        C873   1.462       .  S
N778        C779   1.351       .  A
C779        N780   1.353       .  A
C779        C843   1.458       .  S
C781        N782   1.362       .  A
C781        N786   1.364       .  A
C781        C899   1.439       .  S
N782        C783   1.357       .  A
C783        N784   1.345       .  A
C783        C844   1.442       .  S
N784        C785   1.344       .  A
C785        N786   1.361       .  A
C785        C831   1.458       .  S
C787        N788   1.360       .  A
C787        N792   1.361       .  A
C787        C896   1.438       .  S
N788        C789   1.358       .  A
C789        N790   1.358       .  A
C789        C860   1.470       .  S
N790        C791   1.359       .  A
C791        N792   1.359       .  A
C791        C815   1.468       .  S
C793        N794   1.361       .  A
C793        N798   1.361       .  A
C793        C895   1.445       .  S
N794        C795   1.362       .  A
C795        N796   1.360       .  A
C795        C814   1.479       .  S
N796        C797   1.362       .  A
C797        N798   1.359       .  A
C797        C891   1.472       .  S
C799        N800   1.369       .  A
C799        N804   1.370       .  A
C799        C892   1.444       .  S
N800        C801   1.360       .  A
C801        N802   1.346       .  A
C801        C833   1.470       .  S
N802        C803   1.346       .  A
C803        N804   1.360       .  A
C803        C872   1.466       .  S
O805        C813   1.266       .  A
O805      Co1008   1.969       .  S
O806        C814   1.257       .  A
O806      Co1009   1.977       .  S
O807        C815   1.273       .  A
O807      Co1010   2.044       .  S
O808        C816   1.298       .  A
O808      Co1011   2.128       .  S
O809        C815   1.252       .  A
O809      Co1009   1.957       .  S
O810        C816   1.262       .  A
O810      Co1008   1.889       .  S
O811        C814   1.270       .  A
O811      Co1011   2.039       .  S
O812        C813   1.279       .  A
O812      Co1010   2.025       .  S
O817        C830   1.293       .  A
O817       Co825   2.086       .  S
O818        C831   1.278       .  A
O818       Co826   2.027   1_554  S
O819        C832   1.259       .  A
O819       Co827   1.988       .  S
O820        C833   1.268       .  A
O820       Co828   1.987       .  S
O821        C833   1.277       .  A
O821       Co826   2.008   1_554  S
O822        C832   1.261       .  A
O822       Co825   2.018       .  S
O823        C830   1.270       .  A
O823       Co828   1.887       .  S
O824        C831   1.259       .  A
O824       Co827   1.960       .  S
Co825       O988   1.971   1_554  S
Co825       O993   1.889   1_554  S
Co825       O829   1.981       .  S
Co826       O989   1.983       .  S
Co826       O992   1.955       .  S
Co826       O829   2.003   1_556  S
Co827       O990   2.045       .  S
Co827       O995   2.027   1_554  S
Co827       O829   2.047       .  S
Co828       O991   2.121   1_554  S
Co828       O994   2.039       .  S
Co828       O829   2.012       .  S
O834        C842   1.239       .  A
O834       Co854   1.960       .  S
O835        C843   1.268       .  A
O835       Co855   2.012       .  S
O836        C844   1.256       .  A
O836       Co856   2.003       .  S
O837       Co857   1.979   1_455  S
O838        C844   1.238       .  A
O838       Co855   1.947       .  S
O839        C845   1.272       .  A
O839       Co854   2.005       .  S
O840        C843   1.261       .  A
O840       Co857   1.978       .  S
O841       Co856   2.001   1_455  S
O846        C859   1.258       .  A
O846      Co1037   1.993       .  S
O847        C860   1.271       .  A
O847      Co1038   1.911       .  S
O848      Co1039   2.071   1_455  S
O849        C862   1.271       .  A
O849      Co1040   2.028       .  S
O850        C862   1.260       .  A
O850      Co1038   1.987       .  S
O851        C861   1.272       .  A
O851      Co1037   1.903       .  S
O852      Co1040   2.026   1_455  S
O853        C860   1.293       .  A
O853      Co1039   2.067       .  S
Co854      O1029   1.987   1_554  S
Co854      O1034   1.913   1_554  S
Co855      O1030   1.917   1_554  S
Co855      O1033   1.983   1_554  S
Co855       O858   1.908       .  S
Co856      O1031   2.070   1_654  S
Co856      O1036   2.061   1_554  S
Co856       O858   2.264       .  S
Co857      O1032   2.013   1_554  S
Co857      O1035   2.021   1_655  S
Co857       O858   2.078       .  S
O863        C871   1.257       .  A
O863       Co883   1.988       .  S
O864        C872   1.264       .  A
O864       Co884   1.858       .  S
O865        C873   1.266       .  A
O865      Co1251   2.016   1_544  S
O866        C874   1.297       .  A
O866       Co886   2.083       .  S
O867        C873   1.253       .  A
O867       Co884   1.985       .  S
O868        C874   1.270       .  A
O868       Co883   1.888       .  S
O869        C872   1.304       .  A
O869      Co1252   2.115   1_545  S
O870        C871   1.267       .  A
O870       Co885   2.027   1_554  S
O875        C888   1.238       .  A
O875      Co1066   1.952       .  S
O876        C889   1.268       .  A
O876      Co1067   2.021       .  S
O877        C890   1.261       .  A
O877      Co1068   1.976       .  S
O878        C891   1.255       .  A
O878      Co1435   2.008   1_545  S
O879        C891   1.249       .  A
O879      Co1067   1.977       .  S
O880        C890   1.271       .  A
O880      Co1066   2.017       .  S
O881        C888   1.256       .  A
O881      Co1069   2.014       .  S
O882        C889   1.263       .  A
O882      Co1434   1.982   1_545  S
Co883      O1058   1.946   1_554  S
Co883      O1063   2.017   1_554  S
Co883       O887   1.905       .  S
Co884      O1059   2.016   1_554  S
Co884      O1062   1.975   1_554  S
Co884      O1253   1.893   1_545  S
Co885      O1231   2.011   1_556  S
Co885      O1060   1.980       .  S
Co885      O1431   1.979       .  S
Co885       O887   2.098   1_556  S
Co886      O1235   2.111       .  S
Co886      O1427   2.017   1_554  S
Co886      O1064   2.039   1_554  S
Co886       O887   2.278       .  S
O887      Co1250   1.900       .  S
C892        C893   1.211       .  T
C893        C894   1.421       .  S
C894        C895   1.211       .  T
C896        C897   1.207       .  T
C897        C898   1.415       .  S
C898        C899   1.207       .  T
C900        C901   1.206       .  T
C901        C902   1.412       .  S
C902        C903   1.206       .  T
C904        C905   1.209       .  T
C905        C906   1.417       .  S
C906        C907   1.209       .  T
C908        C909   1.207       .  T
C909        C910   1.415       .  S
C910        C911   1.207       .  T
C912        C913   1.204       .  T
C913        C914   1.410       .  S
C914        C915   1.204       .  T
C916        N917   1.357       .  A
C916        N921   1.360       .  A
C916       C1098   1.429       .  S
N917        C918   1.354       .  A
C918        N919   1.358       .  A
C918       C1015   1.471       .  S
N919        C920   1.362       .  A
C920        N921   1.357       .  A
C920       C1054   1.467       .  S
C922        N923   1.357       .  A
C922        N927   1.360       .  A
C922       C1095   1.428       .  S
N923        C924   1.354       .  A
C924        N925   1.355       .  A
C924       C1073   1.464       .  S
N925        C926   1.359       .  A
C926        N927   1.357       .  A
C926        C996   1.462       .  S
C928        N929   1.364       .  A
C928        N933   1.365       .  A
C928       C1091   1.448       .  S
N929        C930   1.361       .  A
C930        N931   1.355       .  A
C930       C1044   1.472       .  S
N931        C932   1.356       .  A
C932        N933   1.362       .  A
C932       C1071   1.467       .  S
C934        N935   1.365       .  A
C934        N939   1.366       .  A
C934       C1094   1.449       .  S
N935        C936   1.361       .  A
C936        N937   1.352       .  A
C936       C1057   1.468       .  S
N937        C938   1.352       .  A
C938        N939   1.362       .  A
C938       C1025   1.464       .  S
C940        N941   1.363       .  A
C940        N945   1.362       .  A
C940       C1087   1.441       .  S
N941        C942   1.360       .  A
C942        N943   1.349       .  A
C942       C1028   1.461       .  S
N943        C944   1.349       .  A
C944        N945   1.359       .  A
C944       C1013   1.452       .  S
C946        N947   1.364       .  A
C946        N951   1.364       .  A
C946       C1090   1.440       .  S
N947        C948   1.360       .  A
C948        N949   1.353       .  A
C948        C999   1.468       .  S
N949        C950   1.356       .  A
C950        N951   1.358       .  A
C950       C1042   1.466       .  S
C952        N953   1.361       .  A
C952        N957   1.357       .  A
C952       C1083   1.428       .  S
N953        C954   1.357       .  A
C954        N955   1.358       .  A
C954       C1045   1.461       .  S
N955        C956   1.354       .  A
C956        N957   1.354       .  A
C956       C1072   1.464       .  S
C958        N959   1.360       .  A
C958        N963   1.357       .  A
C958       C1086   1.428       .  S
N959        C960   1.358       .  A
C960        N961   1.357       .  A
C960       C1056   1.459       .  S
N961        C962   1.353       .  A
C962        N963   1.354       .  A
C962       C1026   1.460       .  S
C964        N965   1.362       .  A
C964        N969   1.363       .  A
C964       C1082   1.438       .  S
N965        C966   1.357       .  A
C966        N967   1.351       .  A
C966       C1027   1.451       .  S
N967        C968   1.350       .  A
C968        N969   1.360       .  A
C968       C1014   1.465       .  S
C970        N971   1.360       .  A
C970        N975   1.360       .  A
C970       C1079   1.437       .  S
N971        C972   1.358       .  A
C972        N973   1.358       .  A
C972       C1043   1.470       .  S
N973        C974   1.359       .  A
C974        N975   1.358       .  A
C974        C998   1.465       .  S
C976        N977   1.360       .  A
C976        N981   1.360       .  A
C976       C1078   1.441       .  S
N977        C978   1.360       .  A
C978        N979   1.364       .  A
C978        C997   1.484       .  S
N979        C980   1.366       .  A
C980        N981   1.358       .  A
C980       C1074   1.476       .  S
C982        N983   1.370       .  A
C982        N987   1.369       .  A
C982       C1075   1.441       .  S
N983        C984   1.360       .  A
C984        N985   1.343       .  A
C984       C1016   1.466       .  S
N985        C986   1.342       .  A
C986        N987   1.358       .  A
C986       C1055   1.458       .  S
O988        C996   1.268       .  A
O989        C997   1.260       .  A
O990        C998   1.273   1_554  A
O991        C999   1.297       .  A
O992        C998   1.251       .  A
O993        C999   1.263       .  A
O994        C997   1.269   1_554  A
O995        C996   1.279       .  A
O1000      C1013   1.295       .  A
O1000     Co1008   2.098       .  S
O1001      C1014   1.279       .  A
O1001     Co1009   2.036       .  S
O1002      C1015   1.259       .  A
O1002     Co1010   1.985       .  S
O1003      C1016   1.267       .  A
O1003     Co1011   1.984       .  S
O1004      C1016   1.277       .  A
O1004     Co1009   2.003       .  S
O1005      C1015   1.263       .  A
O1005     Co1008   2.016       .  S
O1006      C1013   1.270       .  A
O1006     Co1011   1.887       .  S
O1007      C1014   1.261       .  A
O1007     Co1010   1.964       .  S
Co1008     O1012   1.981       .  S
Co1009     O1012   1.999       .  S
Co1010     O1012   2.044       .  S
Co1011     O1012   2.019       .  S
O1017      C1025   1.237       .  A
O1017     Co1037   1.953       .  S
O1018      C1026   1.268       .  A
O1018     Co1038   2.011       .  S
O1019      C1027   1.258       .  A
O1019     Co1039   2.012       .  S
O1020     Co1040   1.987   1_455  S
O1021      C1027   1.240       .  A
O1021     Co1038   1.949       .  S
O1022      C1028   1.269       .  A
O1022     Co1037   2.006       .  S
O1023      C1026   1.261       .  A
O1023     Co1040   1.980       .  S
O1024     Co1039   2.013   1_455  S
O1029      C1042   1.259       .  A
O1030      C1043   1.272       .  A
O1032      C1045   1.269       .  A
O1033      C1045   1.258       .  A
O1034      C1044   1.274       .  A
O1036      C1043   1.291       .  A
Co1038     O1041   1.915       .  S
Co1039     O1041   2.271       .  S
Co1040     O1041   2.085       .  S
O1046      C1054   1.258       .  A
O1046     Co1066   1.982       .  S
O1047      C1055   1.266       .  A
O1047     Co1067   1.853       .  S
O1048      C1056   1.264       .  A
O1048     Co1434   2.007   1_545  S
O1049      C1057   1.295       .  A
O1049     Co1069   2.076       .  S
O1050      C1056   1.255       .  A
O1050     Co1067   1.984       .  S
O1051      C1057   1.273       .  A
O1051     Co1066   1.901       .  S
O1052      C1055   1.302       .  A
O1052     Co1435   2.106   1_545  S
O1053      C1054   1.267       .  A
O1053     Co1068   2.018       .  S
O1058      C1071   1.238       .  A
O1059      C1072   1.267       .  A
O1060      C1073   1.262       .  A
O1061      C1074   1.256       .  A
O1061     Co1252   2.015   1_546  S
O1062      C1074   1.250       .  A
O1063      C1073   1.269       .  A
O1064      C1071   1.263       .  A
O1065      C1072   1.260       .  A
O1065     Co1251   1.980   1_545  S
Co1066     O1070   1.907       .  S
Co1067     O1436   1.898   1_545  S
Co1068     O1414   2.009       .  S
Co1068     O1248   1.980       .  S
Co1068     O1070   2.076       .  S
Co1069     O1418   2.080       .  S
Co1069     O1244   2.012       .  S
Co1069     O1070   2.265       .  S
O1070     Co1433   1.911       .  S
C1075      C1076   1.209       .  T
C1076      C1077   1.417       .  S
C1077      C1078   1.209       .  T
C1079      C1080   1.207       .  T
C1080      C1081   1.414       .  S
C1081      C1082   1.207       .  T
C1083      C1084   1.201       .  T
C1084      C1085   1.405       .  S
C1085      C1086   1.201       .  T
C1087      C1088   1.209       .  T
C1088      C1089   1.417       .  S
C1089      C1090   1.209       .  T
C1091      C1092   1.213       .  T
C1092      C1093   1.424       .  S
C1093      C1094   1.213       .  T
C1095      C1096   1.202       .  T
C1096      C1097   1.405       .  S
C1097      C1098   1.202       .  T
C1099      N1100   1.360       .  A
C1099      N1104   1.362       .  A
C1099      C1281   1.436       .  S
N1100      C1101   1.357       .  A
C1101      N1102   1.357       .  A
C1101      C1198   1.473       .  S
N1102      C1103   1.361       .  A
C1103      N1104   1.359       .  A
C1103      C1237   1.468       .  S
C1105      N1106   1.357       .  A
C1105      N1110   1.363       .  A
C1105      C1278   1.436       .  S
N1106      C1107   1.355       .  A
C1107      N1108   1.351       .  A
C1107      C1256   1.457       .  S
N1108      C1109   1.354       .  A
C1109      N1110   1.361       .  A
C1109      C1179   1.458       .  S
C1111      N1112   1.366       .  A
C1111      N1116   1.367       .  A
C1111      C1274   1.451       .  S
N1112      C1113   1.362       .  A
C1113      N1114   1.353       .  A
C1113      C1227   1.471       .  S
N1114      C1115   1.353       .  A
C1115      N1116   1.362       .  A
C1115      C1254   1.468       .  S
C1117      N1118   1.367       .  A
C1117      N1122   1.367       .  A
C1117      C1277   1.451       .  S
N1118      C1119   1.362       .  A
C1119      N1120   1.353       .  A
C1119      C1240   1.472       .  S
N1120      C1121   1.353       .  A
C1121      N1122   1.362       .  A
C1121      C1208   1.468       .  S
C1123      N1124   1.358       .  A
C1123      N1128   1.363       .  A
C1123      C1270   1.436       .  S
N1124      C1125   1.355       .  A
C1125      N1126   1.351       .  A
C1125      C1211   1.458       .  S
N1126      C1127   1.354       .  A
C1127      N1128   1.361       .  A
C1127      C1196   1.457       .  S
C1129      N1130   1.359       .  A
C1129      N1134   1.362       .  A
C1129      C1273   1.436       .  S
N1130      C1131   1.357       .  A
C1131      N1132   1.357       .  A
C1131      C1182   1.473       .  S
N1132      C1133   1.361       .  A
C1133      N1134   1.359       .  A
C1133      C1225   1.469       .  S
C1135      N1136   1.362       .  A
C1135      N1140   1.358       .  A
C1135      C1266   1.434       .  S
N1136      C1137   1.359       .  A
C1137      N1138   1.357       .  A
C1137      C1228   1.462       .  S
N1138      C1139   1.353       .  A
C1139      N1140   1.355       .  A
C1139      C1255   1.463       .  S
C1141      N1142   1.362       .  A
C1141      N1146   1.358       .  A
C1141      C1269   1.434       .  S
N1142      C1143   1.359       .  A
C1143      N1144   1.357       .  A
C1143      C1239   1.463       .  S
N1144      C1145   1.353       .  A
C1145      N1146   1.355       .  A
C1145      C1209   1.463       .  S
C1147      N1148   1.362       .  A
C1147      N1152   1.360       .  A
C1147      C1265   1.437       .  S
N1148      C1149   1.359       .  A
C1149      N1150   1.351       .  A
C1149      C1210   1.449       .  S
N1150      C1151   1.348       .  A
C1151      N1152   1.359       .  A
C1151      C1197   1.459       .  S
C1153      N1154   1.367       .  A
C1153      N1158   1.369       .  A
C1153      C1262   1.436       .  S
N1154      C1155   1.356       .  A
C1155      N1156   1.345       .  A
C1155      C1226   1.461       .  S
N1156      C1157   1.347       .  A
C1157      N1158   1.360       .  A
C1157      C1181   1.469       .  S
C1159      N1160   1.361       .  A
C1159      N1164   1.362       .  A
C1159      C1261   1.437       .  S
N1160      C1161   1.359       .  A
C1161      N1162   1.348       .  A
C1161      C1180   1.460       .  S
N1162      C1163   1.351       .  A
C1163      N1164   1.359       .  A
C1163      C1257   1.449       .  S
C1165      N1166   1.369       .  A
C1165      N1170   1.367       .  A
C1165      C1258   1.437       .  S
N1166      C1167   1.360       .  A
C1167      N1168   1.347       .  A
C1167      C1199   1.469       .  S
N1168      C1169   1.345       .  A
C1169      N1170   1.356       .  A
C1169      C1238   1.461       .  S
O1171      C1179   1.292       .  A
O1171     Co1374   2.083       .  S
O1172      C1180   1.279       .  A
O1172     Co1375   2.039       .  S
O1173      C1181   1.270       .  A
O1173     Co1376   1.991       .  S
O1174      C1182   1.255       .  A
O1174     Co1377   1.983       .  S
O1175      C1181   1.276       .  A
O1175     Co1375   2.000       .  S
O1176      C1182   1.262       .  A
O1176     Co1374   2.020       .  S
O1177      C1180   1.257       .  A
O1177     Co1377   1.954       .  S
O1178      C1179   1.274       .  A
O1178     Co1376   1.903       .  S
O1183      C1196   1.291       .  A
O1183     Co1191   2.083       .  S
O1184      C1197   1.278       .  A
O1184     Co1192   2.038   1_554  S
O1185      C1198   1.255       .  A
O1185     Co1193   1.984       .  S
O1186      C1199   1.270       .  A
O1186     Co1194   1.990       .  S
O1187      C1199   1.276       .  A
O1187     Co1192   2.001   1_554  S
O1188      C1198   1.262       .  A
O1188     Co1191   2.020       .  S
O1189      C1196   1.274       .  A
O1189     Co1194   1.902       .  S
O1190      C1197   1.257       .  A
O1190     Co1193   1.954       .  S
Co1191     O1354   1.970   1_554  S
Co1191     O1359   1.877   1_554  S
Co1191     O1195   1.979       .  S
Co1192     O1355   1.977       .  S
Co1192     O1358   1.958       .  S
Co1192     O1195   2.004   1_556  S
Co1193     O1356   2.044   1_554  S
Co1193     O1361   2.031   1_554  S
Co1193     O1195   2.042       .  S
Co1194     O1357   2.129   1_554  S
Co1194     O1360   2.054       .  S
Co1194     O1195   2.027       .  S
O1200      C1208   1.239       .  A
O1200     Co1220   1.953       .  S
O1201      C1209   1.270       .  A
O1201     Co1221   2.019       .  S
O1202      C1210   1.257       .  A
O1202     Co1222   2.012       .  S
O1203     Co1223   1.976   1_455  S
O1204      C1210   1.237       .  A
O1204     Co1221   1.946       .  S
O1205      C1211   1.271       .  A
O1205     Co1220   2.013       .  S
O1206      C1209   1.262       .  A
O1206     Co1223   1.981       .  S
O1207     Co1222   2.014   1_455  S
O1212      C1225   1.256       .  A
O1212     Co1403   1.986       .  S
O1213      C1226   1.265       .  A
O1213     Co1404   1.855       .  S
O1214     Co1405   2.083   1_455  S
O1215      C1228   1.265       .  A
O1215     Co1406   2.011       .  S
O1216      C1228   1.254       .  A
O1216     Co1404   1.985       .  S
O1217      C1227   1.273       .  A
O1217     Co1403   1.900       .  S
O1218     Co1406   2.027   1_455  S
O1219      C1226   1.304       .  A
O1219     Co1405   2.111       .  S
Co1220     O1395   1.995   1_554  S
Co1220     O1400   1.903   1_554  S
Co1221     O1396   1.913   1_554  S
Co1221     O1399   1.979   1_554  S
Co1221     O1224   1.912       .  S
Co1222     O1397   2.076   1_654  S
Co1222     O1402   2.080   1_554  S
Co1222     O1224   2.265       .  S
Co1223     O1398   2.008   1_554  S
Co1223     O1401   2.018   1_654  S
Co1223     O1224   2.076       .  S
O1229      C1237   1.256       .  A
O1229     Co1249   1.985       .  S
O1230      C1238   1.264       .  A
O1230     Co1250   1.855       .  S
O1231      C1239   1.265       .  A
O1232      C1240   1.297       .  A
O1232     Co1252   2.079       .  S
O1233      C1239   1.254       .  A
O1233     Co1250   1.985       .  S
O1234      C1240   1.273       .  A
O1234     Co1249   1.900       .  S
O1235      C1238   1.304       .  A
O1236      C1237   1.266       .  A
O1236     Co1251   2.020   1_554  S
O1241      C1254   1.239       .  A
O1241     Co1432   1.952       .  S
O1242      C1255   1.270       .  A
O1242     Co1433   2.019       .  S
O1243      C1256   1.261       .  A
O1243     Co1434   1.974       .  S
O1244      C1257   1.257       .  A
O1245      C1257   1.237       .  A
O1245     Co1433   1.946       .  S
O1246      C1256   1.271       .  A
O1246     Co1432   2.013       .  S
O1247      C1254   1.262       .  A
O1247     Co1435   2.035       .  S
O1248      C1255   1.262       .  A
Co1249     O1424   1.943   1_554  S
Co1249     O1429   2.025   1_554  S
Co1249     O1253   1.907       .  S
Co1250     O1425   2.011   1_554  S
Co1250     O1428   1.980   1_554  S
Co1251     O1426   1.979       .  S
Co1251     O1253   2.096   1_556  S
Co1252     O1430   2.034   1_554  S
Co1252     O1253   2.278       .  S
C1258      C1259   1.206       .  T
C1259      C1260   1.413       .  S
C1260      C1261   1.207       .  T
C1262      C1263   1.206       .  T
C1263      C1264   1.413       .  S
C1264      C1265   1.206       .  T
C1266      C1267   1.205       .  T
C1267      C1268   1.411       .  S
C1268      C1269   1.205       .  T
C1270      C1271   1.206       .  T
C1271      C1272   1.413       .  S
C1272      C1273   1.206       .  T
C1274      C1275   1.215       .  T
C1275      C1276   1.427       .  S
C1276      C1277   1.215       .  T
C1278      C1279   1.206       .  T
C1279      C1280   1.413       .  S
C1280      C1281   1.206       .  T
C1282      N1283   1.361       .  A
C1282      N1287   1.366       .  A
C1282      C1464   1.439       .  S
N1283      C1284   1.356       .  A
C1284      N1285   1.353       .  A
C1284      C1381   1.464       .  S
N1285      C1286   1.357       .  A
C1286      N1287   1.361       .  A
C1286      C1420   1.471       .  S
C1288      N1289   1.360       .  A
C1288      N1293   1.363       .  A
C1288      C1461   1.439       .  S
N1289      C1290   1.357       .  A
C1290      N1291   1.353       .  A
C1290      C1439   1.467       .  S
N1291      C1292   1.357       .  A
C1292      N1293   1.360       .  A
C1292      C1362   1.463       .  S
C1294      N1295   1.366       .  A
C1294      N1299   1.363       .  A
C1294      C1457   1.446       .  S
N1295      C1296   1.362       .  A
C1296      N1297   1.354       .  A
C1296      C1410   1.473       .  S
N1297      C1298   1.354       .  A
C1298      N1299   1.359       .  A
C1298      C1437   1.462       .  S
C1300      N1301   1.366       .  A
C1300      N1305   1.364       .  A
C1300      C1460   1.446       .  S
N1301      C1302   1.362       .  A
C1302      N1303   1.354       .  A
C1302      C1423   1.474       .  S
N1303      C1304   1.354       .  A
C1304      N1305   1.359       .  A
C1304      C1391   1.463       .  S
C1306      N1307   1.360       .  A
C1306      N1311   1.363       .  A
C1306      C1453   1.439       .  S
N1307      C1308   1.357       .  A
C1308      N1309   1.353       .  A
C1308      C1394   1.467       .  S
N1309      C1310   1.357       .  A
C1310      N1311   1.360       .  A
C1310      C1379   1.463       .  S
C1312      N1313   1.361       .  A
C1312      N1317   1.366       .  A
C1312      C1456   1.439       .  S
N1313      C1314   1.356       .  A
C1314      N1315   1.354       .  A
C1314      C1365   1.465       .  S
N1315      C1316   1.357       .  A
C1316      N1317   1.361       .  A
C1316      C1408   1.471       .  S
C1318      N1319   1.359       .  A
C1318      N1323   1.355       .  A
C1318      C1449   1.421       .  S
N1319      C1320   1.356       .  A
C1320      N1321   1.359       .  A
C1320      C1411   1.458       .  S
N1321      C1322   1.354       .  A
C1322      N1323   1.351       .  A
C1322      C1438   1.460       .  S
C1324      N1325   1.359       .  A
C1324      N1329   1.355       .  A
C1324      C1452   1.421       .  S
N1325      C1326   1.356       .  A
C1326      N1327   1.359       .  A
C1326      C1422   1.459       .  S
N1327      C1328   1.354       .  A
C1328      N1329   1.351       .  A
C1328      C1392   1.461       .  S
C1330      N1331   1.360       .  A
C1330      N1335   1.362       .  A
C1330      C1448   1.447       .  S
N1331      C1332   1.359       .  A
C1332      N1333   1.369       .  A
C1332      C1393   1.482       .  S
N1333      C1334   1.367       .  A
C1334      N1335   1.363       .  A
C1334      C1380   1.492       .  S
C1336      N1337   1.365       .  A
C1336      N1341   1.362       .  A
C1336      C1445   1.447       .  S
N1337      C1338   1.363       .  A
C1338      N1339   1.357       .  A
C1338      C1409   1.476       .  S
N1339      C1340   1.358       .  A
C1340      N1341   1.359       .  A
C1340      C1364   1.468       .  S
C1342      N1343   1.362       .  A
C1342      N1347   1.359       .  A
C1342      C1444   1.447       .  S
N1343      C1344   1.363       .  A
C1344      N1345   1.367       .  A
C1344      C1363   1.492       .  S
N1345      C1346   1.369       .  A
C1346      N1347   1.358       .  A
C1346      C1440   1.482       .  S
C1348      N1349   1.362       .  A
C1348      N1353   1.365       .  A
C1348      C1441   1.447       .  S
N1349      C1350   1.359       .  A
C1350      N1351   1.358       .  A
C1350      C1382   1.469       .  S
N1351      C1352   1.357       .  A
C1352      N1353   1.363       .  A
C1352      C1421   1.476       .  S
O1354      C1362   1.266       .  A
O1355      C1363   1.258       .  A
O1356      C1364   1.274       .  A
O1357      C1365   1.300       .  A
O1358      C1364   1.252       .  A
O1359      C1365   1.261       .  A
O1360      C1363   1.273   1_554  A
O1361      C1362   1.280       .  A
O1366      C1379   1.266       .  A
O1366     Co1374   1.971       .  S
O1367      C1380   1.259       .  A
O1367     Co1375   1.977       .  S
O1368      C1381   1.300       .  A
O1368     Co1376   2.129       .  S
O1369      C1382   1.274       .  A
O1369     Co1377   2.044       .  S
O1370      C1382   1.252       .  A
O1370     Co1375   1.958       .  S
O1371      C1381   1.261       .  A
O1371     Co1374   1.877       .  S
O1372      C1379   1.280       .  A
O1372     Co1377   2.031       .  S
O1373      C1380   1.273       .  A
O1373     Co1376   2.054       .  S
Co1374     O1378   1.980       .  S
Co1375     O1378   2.005       .  S
Co1376     O1378   2.027       .  S
Co1377     O1378   2.042       .  S
O1383      C1391   1.239       .  A
O1383     Co1403   1.944       .  S
O1384      C1392   1.267       .  A
O1384     Co1404   2.012       .  S
O1385      C1393   1.257       .  A
O1385     Co1405   2.017       .  S
O1386     Co1406   1.980   1_455  S
O1387      C1393   1.252       .  A
O1387     Co1404   1.981       .  S
O1388      C1394   1.273       .  A
O1388     Co1403   2.025       .  S
O1389      C1392   1.262       .  A
O1389     Co1406   1.980       .  S
O1390     Co1405   2.039   1_455  S
O1395      C1408   1.261       .  A
O1396      C1409   1.272       .  A
O1398      C1411   1.267       .  A
O1399      C1411   1.258       .  A
O1400      C1410   1.272       .  A
O1402      C1409   1.295       .  A
Co1404     O1407   1.900       .  S
Co1405     O1407   2.278       .  S
Co1406     O1407   2.099       .  S
O1412      C1420   1.261       .  A
O1412     Co1432   1.995       .  S
O1413      C1421   1.272       .  A
O1413     Co1433   1.913       .  S
O1414      C1422   1.267       .  A
O1415      C1423   1.296       .  A
O1415     Co1435   2.079       .  S
O1416      C1422   1.258       .  A
O1416     Co1433   1.979       .  S
O1417      C1423   1.272       .  A
O1417     Co1432   1.902       .  S
O1418      C1421   1.295       .  A
O1419      C1420   1.267       .  A
O1419     Co1434   2.013       .  S
O1424      C1437   1.239       .  A
O1425      C1438   1.266       .  A
O1426      C1439   1.261       .  A
O1427      C1440   1.256       .  A
O1428      C1440   1.251       .  A
O1429      C1439   1.273       .  A
O1430      C1437   1.263       .  A
O1431      C1438   1.261       .  A
Co1432     O1436   1.918       .  S
Co1434     O1436   2.088       .  S
Co1435     O1436   2.269       .  S
C1441      C1442   1.212       .  T
C1442      C1443   1.423       .  S
C1443      C1444   1.212       .  T
C1445      C1446   1.213       .  T
C1446      C1447   1.423       .  S
C1447      C1448   1.213       .  T
C1449      C1450   1.197       .  T
C1450      C1451   1.398       .  S
C1451      C1452   1.197       .  T
C1453      C1454   1.208       .  T
C1454      C1455   1.415       .  S
C1455      C1456   1.208       .  T
C1457      C1458   1.212       .  T
C1458      C1459   1.422       .  S
C1459      C1460   1.212       .  T
C1461      C1462   1.208       .  T
C1462      C1463   1.415       .  S
C1463      C1464   1.208       .  T
