geometry optimzed in LAMMPS
_audit_creation_date              2020-11-30 
_audit_creation_method            'lammps2cif' 
_symmetry_space_group_name_H-M    'P1' 
_symmetry_Int_Tables_number       1 
_symmetry_cell_setting            triclinic 
loop_ 
_symmetry_equiv_pos_as_xyz 
  x,y,z 
_cell_length_a                    29.889781624437756 
_cell_length_b                    30.081104141617807 
_cell_length_c                    29.39405731987303 
_cell_angle_alpha                 90.12980397453782 
_cell_angle_beta                  88.96257260755056 
_cell_angle_gamma                 89.89207925517314 
loop_ 
_atom_site_label 
_atom_site_type_symbol 
_atom_site_fract_x 
_atom_site_fract_y 
_atom_site_fract_z 
_atom_site_charge 
C1          C  0.37311366  0.36958916  0.48941793     0.03180
C2          C  0.38509837  0.32355976  0.49069610    -0.12970
C3          C  0.35282412  0.29284212  0.00568009     0.00680
C4          C  0.31268580  0.31056028  0.02269598    -0.11500
C5          C  0.29492593  0.34943081  0.00451095     0.03170
C6          C  0.32687291  0.38144919  0.48938725    -0.10920
H7          H  0.41876795  0.31244670  0.48248834     0.08760
H8          H  0.29275367  0.29128242  0.04503041     0.06290
H9          H  0.31600198  0.41454295  0.48019935     0.06140
C10         C  0.37203017  0.16609497  0.51183991     0.03180
C11         C  0.38420933  0.21205938  0.51118068    -0.12970
C12         C  0.35329165  0.24335828  0.99706635     0.00680
C13         C  0.31420118  0.22555825  0.97947828    -0.11500
C14         C  0.29617136  0.18625188  0.99684251     0.03170
C15         C  0.32568193  0.15460706  0.51091200    -0.10920
H16         H  0.41746897  0.22287052  0.52006217     0.08760
H17         H  0.29460977  0.24536014  0.95808354     0.06290
H18         H  0.31422428  0.12150634  0.51954809     0.06140
C19         C  0.16806256  0.16724314  0.48792131     0.03180
C20         C  0.21432105  0.15530552  0.48935931    -0.12970
C21         C  0.24635555  0.18600558  0.00524132     0.00680
C22         C  0.22772819  0.22546699  0.02192848    -0.11500
C23         C  0.18778084  0.24418067  0.50365430     0.03170
C24         C  0.15616777  0.21328395  0.48867911    -0.10920
H25         H  0.22569756  0.12211898  0.48063353     0.08760
H26         H  0.24675962  0.24571045  0.04345629     0.06290
H27         H  0.12308634  0.22438252  0.47940294     0.06140
C28         C  0.16863908  0.37086735  0.50903832     0.03180
C29         C  0.21491848  0.38232122  0.50836911    -0.12970
C30         C  0.24606395  0.35008791  0.49432792     0.00680
C31         C  0.22814057  0.30991057  0.97736370    -0.11500
C32         C  0.18836560  0.29351650  0.49449450     0.03170
C33         C  0.15639327  0.32493139  0.50874791    -0.10920
H34         H  0.22605352  0.41550530  0.51685684     0.08760
H35         H  0.24822837  0.29069154  0.95489702     0.06290
H36         H  0.12276038  0.31429098  0.51757919     0.06140
C37         C  0.37573589  0.02204934  0.34779045     0.03180
C38         C  0.38535524  0.04076856  0.30407514    -0.12970
C39         C  0.35001321  0.05849431  0.27839182     0.00680
C40         C  0.30828037  0.06013981  0.30091190    -0.11500
C41         C  0.29692340  0.02785171  0.33296539     0.03170
C42         C  0.33114424  0.01028265  0.35891264    -0.10920
H43         H  0.41949927  0.04340603  0.29148161     0.08760
H44         H  0.28179370  0.08037383  0.28908143     0.06290
H45         H  0.32333478  0.98880326  0.38750123     0.06140
C46         C  0.17264098  0.01188813  0.34890140     0.03180
C47         C  0.21810217  0.01386386  0.36170354    -0.12970
C48         C  0.25185476  0.00770582  0.32885358     0.00680
C49         C  0.23953062  0.99540211  0.28485518    -0.11500
C50         C  0.19597446  0.00401115  0.27016357     0.03170
C51         C  0.16193391  0.00964535  0.30248613    -0.10920
H52         H  0.22716348  0.02259477  0.39610159     0.08760
H53         H  0.26583079  0.99088977  0.25926126     0.06290
H54         H  0.12803675  0.01524273  0.29132963     0.06140
C55         C  0.17475264  0.02057952  0.14514436     0.03180
C56         C  0.16531684  0.00719017  0.19016925    -0.12970
C57         C  0.19240544  0.02323785  0.22425025     0.00680
C58         C  0.22322006  0.05601948  0.21296369    -0.11500
C59         C  0.24421422  0.05590921  0.17014092     0.03170
C60         C  0.21788135  0.03914665  0.13442955    -0.10920
H61         H  0.13710698  0.98594494  0.19848028     0.08760
H62         H  0.23560944  0.07495627  0.24035745     0.06290
H63         H  0.22934730  0.04269703  0.09948594     0.06140
C64         C  0.36955203  0.03503618  0.15171821     0.03180
C65         C  0.38109552  0.04280550  0.19778303    -0.12970
C66         C  0.35123773  0.06579733  0.22718289     0.00680
C67         C  0.31383721  0.08539622  0.20654656    -0.11500
C68         C  0.29439420  0.06456372  0.16862741     0.03170
C69         C  0.32414740  0.04142076  0.13918865    -0.10920
H70         H  0.41265207  0.03079439  0.21046623     0.08760
H71         H  0.29499028  0.11046755  0.22492636     0.06290
H72         H  0.31221974  0.02829366  0.10731224     0.06140
C73         C  0.01560373  0.16777394  0.34825274     0.03180
C74         C  0.99702949  0.16146219  0.30457125    -0.12970
C75         C  0.98938213  0.19835953  0.27609226     0.00680
C76         C  0.99885167  0.24075887  0.29395593    -0.11500
C77         C  0.02500326  0.24650144  0.33225352     0.03170
C78         C  0.03214253  0.21016900  0.36050162    -0.10920
H79         H  0.98805181  0.12842075  0.29332514     0.08760
H80         H  0.99185159  0.27057669  0.27523988     0.06290
H81         H  0.05089854  0.21469416  0.39137135     0.06140
C82         C  0.03602779  0.36844956  0.34813131     0.03180
C83         C  0.03220133  0.32383622  0.36287818    -0.12970
C84         C  0.04921563  0.28954132  0.33553434     0.00680
C85         C  0.07449622  0.30157121  0.29691732    -0.11500
C86         C  0.06266290  0.34090011  0.27394206     0.03170
C87         C  0.04698994  0.37641815  0.30165317    -0.10920
H88         H  0.01477512  0.31574086  0.39441982     0.08760
H89         H  0.09212696  0.27526209  0.27898889     0.06290
H90         H  0.04170174  0.40903968  0.28727170     0.06140
C91         C  0.01050176  0.16771188  0.15259629     0.03180
C92         C  0.99821054  0.15968385  0.19872977    -0.12970
C93         C  0.98056373  0.19483283  0.22568105     0.00680
C94         C  0.96831383  0.23375697  0.20229380    -0.11500
C95         C  0.99397603  0.24615431  0.16408084     0.03170
C96         C  0.01304303  0.21227441  0.13757834    -0.10920
H97         H  0.00395323  0.12732031  0.21354263     0.08760
H98         H  0.94997471  0.25976080  0.22003761     0.06290
H99         H  0.03082655  0.22074072  0.10634449     0.06140
C100        C  0.02236939  0.36901608  0.15322573     0.03180
C101        C  0.04252621  0.37509117  0.19623874    -0.12970
C102        C  0.05249261  0.33793862  0.22366479     0.00680
C103        C  0.04407049  0.29559487  0.20501358    -0.11500
C104        C  0.01676331  0.28979210  0.16757459     0.03170
C105        C  0.00680969  0.32639885  0.14077661    -0.10920
H106        H  0.05100689  0.40818493  0.20769449     0.08760
H107        H  0.05263566  0.26555057  0.22263514     0.06290
H108        H  0.98708862  0.32174039  0.11056873     0.06140
O109        O  0.44885431  0.39151774  0.49417996    -0.86440
O110        O  0.44808649  0.14401783  0.50716307    -0.86610
O111        O  0.39237511  0.02031560  0.07495656    -0.88280
O112        O  0.39695675  0.01896637  0.42499134    -0.87030
O113        O  0.45140625  0.01727801  0.36887080    -0.86620
O114        O  0.44604388  0.02229037  0.12996936    -0.87990
O115        O  0.39374866  0.09024090  0.50637580    -0.86470
O116        O  0.39431637  0.44526296  0.49523405    -0.86060
Zr117      Zr  0.43048532  0.01769532  0.50077010     2.84160
O118        O  0.47558293  0.06299678  0.45424289    -1.08030
O119        O  0.47461256  0.47308073  0.04778719    -1.08760
C120        C  0.40770641  0.40441540  0.49234821     1.06670
C121        C  0.40687618  0.13111979  0.50910455     1.06610
C122        C  0.40483098  0.02382621  0.11680118     1.09590
C123        C  0.41033396  0.01838228  0.38272956     1.07370
H124        H  0.45803650  0.08038966  0.06529800     0.32930
O125        O  0.47656380  0.06169819  0.04601431    -1.28990
H126        H  0.45853855  0.45474366  0.43477124     0.32600
O127        O  0.47636118  0.47326118  0.45421645    -1.30670
O128        O  0.09185324  0.14514517  0.49253881    -0.86440
O129        O  0.09311276  0.39259830  0.50313119    -0.87930
O130        O  0.01870135  0.09056711  0.13391219    -0.86510
O131        O  0.01922160  0.09056479  0.36747371    -0.86560
O132        O  0.02641570  0.44549508  0.36706676    -0.86270
O133        O  0.02123993  0.44625310  0.13418588    -0.86080
O134        O  0.15157236  0.01899526  0.06955923    -0.86450
O135        O  0.14884592  0.01480180  0.42512464    -0.85910
O136        O  0.09763096  0.01755965  0.12624470    -0.86980
O137        O  0.09599102  0.01723311  0.36965710    -0.86140
O138        O  0.02187242  0.14284325  0.07721280    -0.86530
O139        O  0.01687576  0.39374287  0.07768300    -0.86260
O140        O  0.02721734  0.39327450  0.42375041    -0.85910
O141        O  0.01722800  0.14325405  0.42403935    -0.86310
O142        O  0.14645873  0.09156326  0.49112588    -0.86610
O143        O  0.14705949  0.44668903  0.50382249    -0.87950
Zr144      Zr  0.01995692  0.10700566  0.49755706     2.83100
Zr145      Zr  0.02107671  0.42913843  0.49766424     2.83500
Zr146      Zr  0.02076380  0.01818853  0.09555295     2.84090
Zr147      Zr  0.02189605  0.01794780  0.40531399     2.83360
Zr148      Zr  0.11041304  0.01913004  0.49725669     2.84220
O149        O  0.06696280  0.47339504  0.45114744    -1.08520
O150        O  0.06707107  0.06266367  0.04885436    -1.08020
C151        C  0.13315264  0.13242688  0.48981828     1.06640
C152        C  0.13403679  0.40572745  0.50587353     1.09260
C153        C  0.01869311  0.13117433  0.11944459     1.06810
C154        C  0.01763367  0.13126106  0.38184385     1.07170
C155        C  0.02865765  0.40494799  0.38149802     1.06750
C156        C  0.01939953  0.40562804  0.11983523     1.06310
C157        C  0.13900480  0.01821249  0.11145309     1.06730
C158        C  0.13676880  0.01518058  0.38340697     1.06250
H159        H  0.08342344  0.45479132  0.06717851     0.32920
O160        O  0.06516652  0.47337406  0.04824666    -1.29620
H161        H  0.08448520  0.08183448  0.43118124     0.32950
O162        O  0.06608345  0.06332109  0.45067105    -1.31000
C163        C  0.37253081  0.36979097  0.98969113     0.03180
C164        C  0.38481857  0.32385619  0.99091835    -0.12970
C165        C  0.35269031  0.29273772  0.50502665     0.00680
C166        C  0.31262423  0.31073489  0.52179992    -0.11500
C167        C  0.29538678  0.34984643  0.50366951     0.03170
C168        C  0.32614853  0.38130406  0.98997632    -0.10920
H169        H  0.41848759  0.31294217  0.98240609     0.08760
H170        H  0.29208016  0.29128127  0.54333155     0.06290
H171        H  0.31500076  0.41431365  0.98082624     0.06140
C172        C  0.37321727  0.16632748  0.01213343     0.03180
C173        C  0.38511644  0.21237149  0.01149489    -0.12970
C174        C  0.35272724  0.24323353  0.49648095     0.00680
C175        C  0.31349751  0.22568948  0.47886033    -0.11500
C176        C  0.29502096  0.18663237  0.49632915     0.03170
C177        C  0.32701679  0.15450950  0.01134729    -0.10920
H178        H  0.41835298  0.22336869  0.02023083     0.08760
H179        H  0.29437910  0.24537251  0.45690341     0.06290
H180        H  0.31578323  0.12133690  0.02000927     0.06140
C181        C  0.16967770  0.16507766  0.98982526     0.03180
C182        C  0.21597541  0.15361767  0.99115856    -0.12970
C183        C  0.24504556  0.18692206  0.50449844     0.00680
C184        C  0.22671037  0.22632404  0.52176530    -0.11500
C185        C  0.18858619  0.24258564  0.00378480     0.03170
C186        C  0.15730100  0.21105839  0.98957722    -0.10920
H187        H  0.22761206  0.12033851  0.98321135     0.08760
H188        H  0.24573601  0.24589707  0.54403215     0.06290
H189        H  0.12403170  0.22164085  0.98035845     0.06140
C190        C  0.16765203  0.36867154  0.01092724     0.03180
C191        C  0.21389553  0.38058407  0.01035415    -0.12970
C192        C  0.24545722  0.34911559  0.99538205     0.00680
C193        C  0.22836964  0.31077241  0.47699777    -0.11500
C194        C  0.18828728  0.29192182  0.99464368     0.03170
C195        C  0.15591206  0.32269335  0.00954798    -0.10920
H196        H  0.22471641  0.41366114  0.01965860     0.08760
H197        H  0.24827814  0.29095107  0.45500915     0.06290
H198        H  0.12242813  0.31154501  0.01827964     0.06140
C199        C  0.37486068  0.02166817  0.84794080     0.03180
C200        C  0.38439920  0.04036613  0.80419045    -0.12970
C201        C  0.34899136  0.05783704  0.77842096     0.00680
C202        C  0.30719046  0.05914817  0.80077398    -0.11500
C203        C  0.29583947  0.02673941  0.83267895     0.03170
C204        C  0.33018977  0.00960755  0.85896642    -0.10920
H205        H  0.41853880  0.04321708  0.79163472     0.08760
H206        H  0.28057865  0.07904189  0.78869722     0.06290
H207        H  0.32245589  0.98821775  0.88763766     0.06140
C208        C  0.17133835  0.01009055  0.85003327     0.03180
C209        C  0.21706873  0.01158778  0.86214392    -0.12970
C210        C  0.25041719  0.00690843  0.82851771     0.00680
C211        C  0.23736903  0.99633234  0.78421099    -0.11500
C212        C  0.19367010  0.00565938  0.77024167     0.03170
C213        C  0.16003326  0.01013187  0.80347999    -0.10920
H214        H  0.22663683  0.01884157  0.89674016     0.08760
H215        H  0.26334317  0.99232339  0.75819497     0.06290
H216        H  0.12599519  0.01634536  0.79312348     0.06140
C217        C  0.17264737  0.02269667  0.64435304     0.03180
C218        C  0.16255824  0.00977882  0.68963390    -0.12970
C219        C  0.18976112  0.02536699  0.72412906     0.00680
C220        C  0.22136252  0.05742754  0.71267651    -0.11500
C221        C  0.24279969  0.05651159  0.66998418     0.03170
C222        C  0.21633409  0.04023204  0.63407785    -0.10920
H223        H  0.13395462  0.98900671  0.69775502     0.08760
H224        H  0.23394766  0.07631305  0.74004216     0.06290
H225        H  0.22825693  0.04326199  0.59923397     0.06140
C226        C  0.36858503  0.03492426  0.65164968     0.03180
C227        C  0.38008974  0.04248178  0.69775527    -0.12970
C228        C  0.35023023  0.06534000  0.72724330     0.00680
C229        C  0.31280286  0.08501386  0.70672251    -0.11500
C230        C  0.29325312  0.06438343  0.66874910     0.03170
C231        C  0.32307756  0.04133345  0.63916992    -0.10920
H232        H  0.41163866  0.03041899  0.71041183     0.08760
H233        H  0.29418218  0.11020284  0.72516164     0.06290
H234        H  0.31117594  0.02841684  0.60719699     0.06140
C235        C  0.03254602  0.16646667  0.85334363     0.03180
C236        C  0.03082721  0.15499879  0.80639531    -0.12970
C237        C  0.01564462  0.18692396  0.77586309     0.00680
C238        C  0.99866314  0.22610195  0.79494791    -0.11500
C239        C  0.01697533  0.24350687  0.83443698     0.03170
C240        C  0.03215286  0.21234583  0.86597573    -0.10920
H241        H  0.03926658  0.12192574  0.79436626     0.08760
H242        H  0.97633285  0.24576617  0.77617162     0.06290
H243        H  0.04166459  0.22310066  0.89962170     0.06140
C244        C  0.01044809  0.36951186  0.85393613     0.03180
C245        C  0.01116008  0.32371417  0.86643870    -0.12970
C246        C  0.02636730  0.29260930  0.83422943     0.00680
C247        C  0.04417402  0.31004545  0.79385670    -0.11500
C248        C  0.02687987  0.34919530  0.77569034     0.03170
C249        C  0.01172604  0.38098642  0.80700512    -0.10920
H250        H  0.00192262  0.31297645  0.90046483     0.08760
H251        H  0.06659946  0.29055104  0.77407519     0.06290
H252        H  0.00296278  0.41399849  0.79549683     0.06140
C253        C  0.00879259  0.16657821  0.64746520     0.03180
C254        C  0.00925538  0.15517874  0.69445101    -0.12970
C255        C  0.02391330  0.18699459  0.72541281     0.00680
C256        C  0.04167931  0.22583009  0.70681640    -0.11500
C257        C  0.02471171  0.24341976  0.66681057     0.03170
C258        C  0.00997750  0.21240905  0.63484983    -0.10920
H259        H  0.00033720  0.12221136  0.70619222     0.08760
H260        H  0.06285906  0.24559150  0.72662025     0.06290
H261        H  0.00147088  0.22319418  0.60096029     0.06140
C262        C  0.03166380  0.36959120  0.64702246     0.03180
C263        C  0.03196839  0.38102355  0.69407142    -0.12970
C264        C  0.01790139  0.34916504  0.72569454     0.00680
C265        C  0.99972691  0.31041264  0.70791261    -0.11500
C266        C  0.01614195  0.29274693  0.66704126     0.03170
C267        C  0.03035163  0.32371606  0.63436623    -0.10920
H268        H  0.04107893  0.41399862  0.70545377     0.08760
H269        H  0.97872670  0.29075015  0.72872422     0.06290
H270        H  0.03840430  0.31286228  0.60003093     0.06140
O271        O  0.44830366  0.39179511  0.99409036    -0.86440
O272        O  0.44921589  0.14432455  0.00716412    -0.86610
O273        O  0.39168000  0.02020873  0.57489576    -0.88280
O274        O  0.39644941  0.01882287  0.92514268    -0.87030
O275        O  0.45084325  0.01724800  0.86895235    -0.86620
O276        O  0.44530958  0.02241100  0.62995042    -0.87990
O277        O  0.39479071  0.09061867  0.00632216    -0.86470
O278        O  0.39383791  0.44559476  0.99521735    -0.86060
Zr279      Zr  0.43070519  0.01776160  0.00057757     2.84160
O280        O  0.47600808  0.06298251  0.95410618    -1.08030
O281        O  0.47459170  0.47313408  0.54795620    -1.08760
C282        C  0.40713697  0.40471634  0.99236827     1.06670
C283        C  0.40802662  0.13145333  0.00916063     1.06610
C284        C  0.40404751  0.02381913  0.61675252     1.09590
C285        C  0.40970424  0.01821517  0.88285409     1.07370
H286        H  0.45745943  0.08040486  0.56554782     0.32930
O287        O  0.47608680  0.06174542  0.54632892    -1.28990
H288        H  0.45843576  0.45476911  0.93453206     0.32600
O289        O  0.47636415  0.47325031  0.95391243    -1.30670
O290        O  0.09402025  0.14348504  0.99696977    -0.86440
O291        O  0.09156195  0.39087628  0.00718952    -0.87930
O292        O  0.01404003  0.09078432  0.62645043    -0.86510
O293        O  0.02880532  0.09064201  0.87454040    -0.86560
O294        O  0.01509448  0.44516474  0.87493949    -0.86270
O295        O  0.02632489  0.44540298  0.62640422    -0.86080
O296        O  0.15020663  0.02129752  0.56779157    -0.86450
O297        O  0.14838902  0.01292739  0.92720676    -0.85910
O298        O  0.09577568  0.01917118  0.62385433    -0.86980
O299        O  0.09482423  0.01357715  0.87248693    -0.86140
O300        O  0.01460870  0.14414366  0.57072233    -0.86530
O301        O  0.02554551  0.39196526  0.57055304    -0.86260
O302        O  0.01584421  0.39172825  0.93052527    -0.85910
O303        O  0.02663913  0.14432370  0.93011488    -0.86310
O304        O  0.14787581  0.08915649  0.99394611    -0.86610
O305        O  0.14621369  0.44425331  0.00671177    -0.87950
Zr306      Zr  0.02194286  0.10692839  0.00297168     2.83100
Zr307      Zr  0.01972715  0.42910471  0.00340010     2.83500
Zr308      Zr  0.02027158  0.01799329  0.59032990     2.84090
Zr309      Zr  0.02204027  0.01787893  0.91061397     2.83360
Zr310      Zr  0.11072070  0.01687986  0.00062866     2.84220
O311        O  0.06648162  0.47132911  0.95520772    -1.08520
O312        O  0.06568453  0.06431519  0.54466030    -1.08020
C313        C  0.13498165  0.13024002  0.99301088     1.06640
C314        C  0.13280768  0.40349987  0.00894083     1.09260
C315        C  0.01186905  0.13149844  0.61258962     1.06810
C316        C  0.02999029  0.13150092  0.88828014     1.07170
C317        C  0.01316871  0.40444605  0.88878192     1.06750
C318        C  0.02837954  0.40464668  0.61236557     1.06310
C319        C  0.13730298  0.02025632  0.60973211     1.06730
C320        C  0.13585702  0.01250703  0.88549684     1.06250
H321        H  0.08411664  0.45664155  0.56195512     0.32920
O322        O  0.06518545  0.47447171  0.54301333    -1.29620
H323        H  0.08599356  0.07968081  0.93649902     0.32950
O324        O  0.06674026  0.06200645  0.95591621    -1.31000
C325        C  0.37311404  0.86958873  0.48941573     0.03180
C326        C  0.38509853  0.82355940  0.49069442    -0.12970
C327        C  0.35282386  0.79284219  0.00568021     0.00680
C328        C  0.31268552  0.81056020  0.02269634    -0.11500
C329        C  0.29492547  0.84943081  0.00451156     0.03170
C330        C  0.32687332  0.88144896  0.48938549    -0.10920
H331        H  0.41876794  0.81244605  0.48248634     0.08760
H332        H  0.29275349  0.79128214  0.04503072     0.06290
H333        H  0.31600241  0.91454260  0.48019718     0.06140
C334        C  0.37203023  0.66609554  0.51184020     0.03180
C335        C  0.38420932  0.71205986  0.51118074    -0.12970
C336        C  0.35329154  0.74335842  0.99706602     0.00680
C337        C  0.31420112  0.72555852  0.97947786    -0.11500
C338        C  0.29617146  0.68625197  0.99684170     0.03170
C339        C  0.32568205  0.65460747  0.51091196    -0.10920
H340        H  0.41746886  0.72287113  0.52006243     0.08760
H341        H  0.29460964  0.74536058  0.95808336     0.06290
H342        H  0.31422440  0.62150680  0.51954825     0.06140
C343        C  0.16806264  0.66724312  0.48792138     0.03180
C344        C  0.21432116  0.65530550  0.48935923    -0.12970
C345        C  0.24635565  0.68600551  0.00524045     0.00680
C346        C  0.22772806  0.72546675  0.02192794    -0.11500
C347        C  0.18778113  0.74418081  0.50365358     0.03170
C348        C  0.15616789  0.71328398  0.48867891    -0.10920
H349        H  0.22569761  0.62211889  0.48063368     0.08760
H350        H  0.24675942  0.74571015  0.04345589     0.06290
H351        H  0.12308640  0.72438250  0.47940291     0.06140
C352        C  0.16863953  0.87086742  0.50903825     0.03180
C353        C  0.21491892  0.88232126  0.50836902    -0.12970
C354        C  0.24606435  0.85008803  0.49432755     0.00680
C355        C  0.22814023  0.80991067  0.97736402    -0.11500
C356        C  0.18836589  0.79351665  0.49449380     0.03170
C357        C  0.15639366  0.82493149  0.50874752    -0.10920
H358        H  0.22605400  0.91550529  0.51685690     0.08760
H359        H  0.24822811  0.79069181  0.95489727     0.06290
H360        H  0.12276077  0.81429107  0.51757881     0.06140
C361        C  0.37573542  0.52205150  0.34779179     0.03180
C362        C  0.38535532  0.54076947  0.30407592    -0.12970
C363        C  0.35001366  0.55849483  0.27839175     0.00680
C364        C  0.30828069  0.56014119  0.30091139    -0.11500
C365        C  0.29692312  0.52785382  0.33296540     0.03170
C366        C  0.33114351  0.51028536  0.35891375    -0.10920
H367        H  0.41949946  0.54340621  0.29148253     0.08760
H368        H  0.28179399  0.58037433  0.28907958     0.06290
H369        H  0.32333354  0.48880668  0.38750276     0.06140
C370        C  0.17264052  0.51189066  0.34890134     0.03180
C371        C  0.21810178  0.51386560  0.36170349    -0.12970
C372        C  0.25185425  0.50770838  0.32885322     0.00680
C373        C  0.23952985  0.49540617  0.28485444    -0.11500
C374        C  0.19597381  0.50401610  0.27016320     0.03170
C375        C  0.16193337  0.50964975  0.30248598    -0.10920
H376        H  0.22716322  0.52259521  0.39610183     0.08760
H377        H  0.26582986  0.49089398  0.25926034     0.06290
H378        H  0.12803622  0.51524770  0.29132971     0.06140
C379        C  0.17475311  0.52058078  0.14514363     0.03180
C380        C  0.16531661  0.50719330  0.19016894    -0.12970
C381        C  0.19240458  0.52324242  0.22424975     0.00680
C382        C  0.22321957  0.55602351  0.21296232    -0.11500
C383        C  0.24421465  0.55591088  0.17013990     0.03170
C384        C  0.21788213  0.53914715  0.13442876    -0.10920
H385        H  0.13710670  0.48594828  0.19848039     0.08760
H386        H  0.23560869  0.57496140  0.24035555     0.06290
H387        H  0.22934870  0.54269589  0.09948516     0.06140
C388        C  0.36955240  0.53503504  0.15171819     0.03180
C389        C  0.38109583  0.54280427  0.19778309    -0.12970
C390        C  0.35123839  0.56579692  0.22718263     0.00680
C391        C  0.31383828  0.58539626  0.20654595    -0.11500
C392        C  0.29439497  0.56456383  0.16862692     0.03170
C393        C  0.32414788  0.54142017  0.13918845    -0.10920
H394        H  0.41265216  0.53079280  0.21046648     0.08760
H395        H  0.29499205  0.61046843  0.22492524     0.06290
H396        H  0.31222021  0.52829326  0.10731197     0.06140
C397        C  0.01560075  0.66777358  0.34825244     0.03180
C398        C  0.99702799  0.66146160  0.30457022    -0.12970
C399        C  0.98938113  0.69835889  0.27609086     0.00680
C400        C  0.99884956  0.74075835  0.29395487    -0.11500
C401        C  0.02499952  0.74650126  0.33225354     0.03170
C402        C  0.03213831  0.71016895  0.36050189    -0.10920
H403        H  0.98805138  0.62841999  0.29332370     0.08760
H404        H  0.99185033  0.77057609  0.27523834     0.06290
H405        H  0.05089344  0.71469444  0.39137213     0.06140
C406        C  0.03602564  0.86844954  0.34813116     0.03180
C407        C  0.03219727  0.82383631  0.36287788    -0.12970
C408        C  0.04921194  0.78954105  0.33553478     0.00680
C409        C  0.07449412  0.80157037  0.29691865    -0.11500
C410        C  0.06266239  0.84089945  0.27394282     0.03170
C411        C  0.04698943  0.87641788  0.30165338    -0.10920
H412        H  0.01476984  0.81574144  0.39441897     0.08760
H413        H  0.09212522  0.77526093  0.27899114     0.06290
H414        H  0.04170281  0.90903962  0.28727182     0.06140
C415        C  0.01050456  0.66771117  0.15259524     0.03180
C416        C  0.99821200  0.65968318  0.19872841    -0.12970
C417        C  0.98056469  0.69483228  0.22567917     0.00680
C418        C  0.96831587  0.73375649  0.20229141    -0.11500
C419        C  0.99397947  0.74615367  0.16407935     0.03170
C420        C  0.01304711  0.71227367  0.13757750    -0.10920
H421        H  0.00395366  0.62731948  0.21354135     0.08760
H422        H  0.94997607  0.75976040  0.22003435     0.06290
H423        H  0.03083165  0.72073977  0.10634417     0.06140
C424        C  0.02237123  0.86901578  0.15322580     0.03180
C425        C  0.04252734  0.87509077  0.19623916    -0.12970
C426        C  0.05249374  0.83793813  0.22366516     0.00680
C427        C  0.04407267  0.79559437  0.20501341    -0.11500
C428        C  0.01676652  0.78979149  0.16757365     0.03170
C429        C  0.00681270  0.82639833  0.14077592    -0.10920
H430        H  0.05100714  0.90818461  0.20769537     0.08760
H431        H  0.05263749  0.76555003  0.22263509     0.06290
H432        H  0.98709210  0.82173978  0.11056774     0.06140
O433        O  0.44885492  0.89151705  0.49417745    -0.86440
O434        O  0.44808661  0.64401851  0.50716348    -0.86610
O435        O  0.39237570  0.52031527  0.07495643    -0.88280
O436        O  0.39695605  0.51896772  0.42499302    -0.87030
O437        O  0.45140572  0.51728065  0.36887263    -0.86620
O438        O  0.44604425  0.52228943  0.12996948    -0.87990
O439        O  0.39374859  0.59024171  0.50637705    -0.86470
O440        O  0.39431692  0.94526223  0.49523177    -0.86060
Zr441      Zr  0.43048487  0.51769633  0.50077189     2.84160
O442        O  0.47558259  0.56299790  0.45424457    -1.08030
O443        O  0.47461213  0.97308055  0.04778663    -1.08760
C444        C  0.40770697  0.90441474  0.49234578     1.06670
C445        C  0.40687626  0.63112052  0.50910524     1.06610
C446        C  0.40483141  0.52382537  0.11680115     1.09590
C447        C  0.41033336  0.51838439  0.38273122     1.07370
H448        H  0.45803667  0.58038965  0.06529743     0.32930
O449        O  0.47656439  0.56169830  0.04601401    -1.28990
H450        H  0.45853959  0.95474234  0.43476938     0.32600
O451        O  0.47636189  0.97326003  0.45421470    -1.30670
O452        O  0.09185327  0.64514516  0.49253844    -0.86440
O453        O  0.09311329  0.89259835  0.50313078    -0.87930
O454        O  0.01870288  0.59056647  0.13391110    -0.86510
O455        O  0.01921958  0.59056430  0.36747342    -0.86560
O456        O  0.02641489  0.94549518  0.36706652    -0.86270
O457        O  0.02124020  0.94625313  0.13418669    -0.86080
O458        O  0.15157321  0.51899538  0.06955822    -0.86450
O459        O  0.14884555  0.51480254  0.42512473    -0.85910
O460        O  0.09763162  0.51755971  0.12624349    -0.86980
O461        O  0.09599054  0.51723429  0.36965732    -0.86140
O462        O  0.02187436  0.64284250  0.07721163    -0.86530
O463        O  0.01687661  0.89374322  0.07768343    -0.86260
O464        O  0.02721679  0.89327459  0.42375021    -0.85910
O465        O  0.01722639  0.64325350  0.42403909    -0.86310
O466        O  0.14645868  0.59156319  0.49112670    -0.86610
O467        O  0.14705992  0.94668915  0.50382296    -0.87950
Zr468      Zr  0.01995698  0.60700561  0.49755714     2.83100
Zr469      Zr  0.02107730  0.92913848  0.49766403     2.83500
Zr470      Zr  0.02076444  0.51818816  0.09555182     2.84090
Zr471      Zr  0.02189557  0.51794763  0.40531429     2.83360
Zr472      Zr  0.11041267  0.51912998  0.49725688     2.84220
O473        O  0.06696326  0.97339515  0.45114717    -1.08520
O474        O  0.06707174  0.56266305  0.04885308    -1.08020
C475        C  0.13315268  0.63242683  0.48981849     1.06640
C476        C  0.13403727  0.90572754  0.50587356     1.09260
C477        C  0.01869521  0.63117363  0.11944346     1.06810
C478        C  0.01763140  0.63126057  0.38184354     1.07170
C479        C  0.02865652  0.90494808  0.38149782     1.06750
C480        C  0.01940049  0.90562811  0.11983573     1.06310
C481        C  0.13900551  0.51821284  0.11145207     1.06730
C482        C  0.13676837  0.51518196  0.38340707     1.06250
H483        H  0.08342292  0.95479179  0.06717912     0.32920
O484        O  0.06516585  0.97337459  0.04824748    -1.29620
H485        H  0.08448493  0.58183449  0.43118122     0.32950
O486        O  0.06608325  0.56332104  0.45067106    -1.31000
C487        C  0.37253017  0.86979106  0.98969107     0.03180
C488        C  0.38481806  0.82385634  0.99091819    -0.12970
C489        C  0.35269055  0.79273782  0.50502602     0.00680
C490        C  0.31262475  0.81073528  0.52179973    -0.11500
C491        C  0.29538722  0.84984662  0.50366889     0.03170
C492        C  0.32614790  0.88130410  0.98997673    -0.10920
H493        H  0.41848703  0.81294240  0.98240560     0.08760
H494        H  0.29208104  0.79128216  0.54333231     0.06290
H495        H  0.31500002  0.91431368  0.98082676     0.06140
C496        C  0.37321752  0.66632744  0.01213193     0.03180
C497        C  0.38511655  0.71237150  0.01149393    -0.12970
C498        C  0.35272731  0.74323375  0.49648054     0.00680
C499        C  0.31349772  0.72568965  0.47885968    -0.11500
C500        C  0.29502114  0.68663252  0.49632849     0.03170
C501        C  0.32701702  0.65450940  0.01134583    -0.10920
H502        H  0.41835309  0.72336869  0.02022991     0.08760
H503        H  0.29437944  0.74537258  0.45690253     0.06290
H504        H  0.31578355  0.62133669  0.02000745     0.06140
C505        C  0.16967806  0.66507745  0.98982368     0.03180
C506        C  0.21597576  0.65361766  0.99115713    -0.12970
C507        C  0.24504576  0.68692222  0.50449781     0.00680
C508        C  0.22671075  0.72632433  0.52176439    -0.11500
C509        C  0.18858598  0.74258546  0.00378437     0.03170
C510        C  0.15730111  0.71105815  0.98957616    -0.10920
H511        H  0.22761260  0.62033862  0.98320964     0.08760
H512        H  0.24573691  0.74589785  0.54403028     0.06290
H513        H  0.12403179  0.72164053  0.98035734     0.06140
C514        C  0.16765147  0.86867164  0.01092718     0.03180
C515        C  0.21389498  0.88058411  0.01035449    -0.12970
C516        C  0.24545676  0.84911558  0.99538265     0.00680
C517        C  0.22837002  0.81077261  0.47699723    -0.11500
C518        C  0.18828692  0.79192180  0.99464370     0.03170
C519        C  0.15591153  0.82269336  0.00954780    -0.10920
H520        H  0.22471580  0.91366117  0.01965906     0.08760
H521        H  0.24827858  0.79095131  0.45500862     0.06290
H522        H  0.12242755  0.81154500  0.01827919     0.06140
C523        C  0.37486137  0.52166413  0.84794092     0.03180
C524        C  0.38439787  0.54036573  0.80419190    -0.12970
C525        C  0.34898809  0.55783386  0.77842331     0.00680
C526        C  0.30718682  0.55913834  0.80077604    -0.11500
C527        C  0.29583951  0.52672666  0.83267915     0.03170
C528        C  0.33019192  0.50959740  0.85896559    -0.10920
H529        H  0.41853721  0.54322182  0.79163674     0.08760
H530        H  0.28057381  0.57903237  0.78870279     0.06290
H531        H  0.32246061  0.48820537  0.88763576     0.06140
C532        C  0.17133933  0.51007507  0.85003270     0.03180
C533        C  0.21706952  0.51157376  0.86214373    -0.12970
C534        C  0.25041870  0.50689199  0.82851861     0.00680
C535        C  0.23737156  0.49631189  0.78421244    -0.11500
C536        C  0.19367213  0.50563586  0.77024158     0.03170
C537        C  0.16003482  0.51011034  0.80347926    -0.10920
H538        H  0.22663701  0.51883172  0.89673924     0.08760
H539        H  0.26334641  0.49230333  0.75819709     0.06290
H540        H  0.12599682  0.51632249  0.79312174     0.06140
C541        C  0.17264745  0.52268656  0.64435327     0.03180
C542        C  0.16256038  0.50976084  0.68963245    -0.12970
C543        C  0.18976391  0.52534484  0.72412926     0.00680
C544        C  0.22136275  0.55740880  0.71268055    -0.11500
C545        C  0.24279807  0.55650203  0.66998743     0.03170
C546        C  0.21633273  0.54022605  0.63407947    -0.10920
H547        H  0.13395747  0.48898692  0.69775112     0.08760
H548        H  0.23394631  0.57629209  0.74004807     0.06290
H549        H  0.22825408  0.54326287  0.59923573     0.06140
C550        C  0.36858460  0.53492831  0.65165154     0.03180
C551        C  0.38008871  0.54248617  0.69775725    -0.12970
C552        C  0.35022685  0.56534041  0.72724624     0.00680
C553        C  0.31279759  0.58501155  0.70672631    -0.11500
C554        C  0.29325019  0.56438077  0.66875180     0.03170
C555        C  0.32307675  0.54133454  0.63917182    -0.10920
H556        H  0.41163851  0.53042543  0.71041358     0.08760
H557        H  0.29417332  0.61019675  0.72516729     0.06290
H558        H  0.31117603  0.52841723  0.60719882     0.06140
C559        C  0.03254743  0.66646664  0.85334296     0.03180
C560        C  0.03082796  0.65499904  0.80639466    -0.12970
C561        C  0.01564524  0.68692450  0.77586289     0.00680
C562        C  0.99866430  0.72610257  0.79494806    -0.11500
C563        C  0.01697701  0.74350720  0.83443696     0.03170
C564        C  0.03215466  0.71234580  0.86597537    -0.10920
H565        H  0.03926692  0.62192600  0.79436531     0.08760
H566        H  0.97633462  0.74576738  0.77617175     0.06290
H567        H  0.04166676  0.72310035  0.89962132     0.06140
C568        C  0.01044899  0.86951224  0.85393659     0.03180
C569        C  0.01116161  0.82371449  0.86643906    -0.12970
C570        C  0.02636881  0.79260975  0.83422957     0.00680
C571        C  0.04417478  0.81004619  0.79385659    -0.11500
C572        C  0.02687993  0.84919585  0.77569049     0.03170
C573        C  0.01172625  0.88098683  0.80700556    -0.10920
H574        H  0.00192458  0.81297662  0.90046525     0.08760
H575        H  0.06660078  0.79055236  0.77407506     0.06290
H576        H  0.00296248  0.91399883  0.79549744     0.06140
C577        C  0.00879315  0.66657866  0.64746501     0.03180
C578        C  0.00925615  0.65517920  0.69445081    -0.12970
C579        C  0.02391340  0.68699536  0.72541259     0.00680
C580        C  0.04167860  0.72583118  0.70681624    -0.11500
C581        C  0.02471063  0.74342056  0.66681056     0.03170
C582        C  0.00997720  0.71240957  0.63484967    -0.10920
H583        H  0.00033862  0.62221166  0.70619203     0.08760
H584        H  0.06285768  0.74559308  0.72662021     0.06290
H585        H  0.00147048  0.72319456  0.60096010     0.06140
C586        C  0.03166391  0.86959165  0.64702259     0.03180
C587        C  0.03196855  0.88102400  0.69407156    -0.12970
C588        C  0.01790100  0.84916572  0.72569472     0.00680
C589        C  0.99972590  0.81041357  0.70791274    -0.11500
C590        C  0.01614070  0.79274768  0.66704125     0.03170
C591        C  0.03035105  0.82371660  0.63436637    -0.10920
H592        H  0.04107960  0.91399892  0.70545389     0.08760
H593        H  0.97872507  0.79075146  0.72872422     0.06290
H594        H  0.03840376  0.81286270  0.60003111     0.06140
O595        O  0.44830300  0.89179517  0.99408921    -0.86440
O596        O  0.44921623  0.64432460  0.00716248    -0.86610
O597        O  0.39167989  0.52021211  0.57489780    -0.88280
O598        O  0.39645030  0.51882104  0.92514260    -0.87030
O599        O  0.45084421  0.51724755  0.86895227    -0.86620
O600        O  0.44530933  0.52241393  0.62995262    -0.87990
O601        O  0.39479117  0.59061858  0.00632127    -0.86470
O602        O  0.39383721  0.94559481  0.99521755    -0.86060
Zr603      Zr  0.43070592  0.51776156  0.00057749     2.84160
O604        O  0.47600886  0.56298252  0.95410597    -1.08030
O605        O  0.47459252  0.97313334  0.54795422    -1.08760
C606        C  0.40713628  0.90471644  0.99236789     1.06670
C607        C  0.40802698  0.63145331  0.00915921     1.06610
C608        C  0.40404731  0.52382284  0.61675459     1.09590
C609        C  0.40970518  0.51821337  0.88285405     1.07370
H610        H  0.45745976  0.58040591  0.56554902     0.32930
O611        O  0.47608701  0.56174617  0.54633027    -1.28990
H612        H  0.45843478  0.95476921  0.93453169     0.32600
O613        O  0.47636318  0.97325022  0.95391221    -1.30670
O614        O  0.09402085  0.64348453  0.99696833    -0.86440
O615        O  0.09156137  0.89087655  0.00718996    -0.87930
O616        O  0.01404123  0.59078476  0.62645039    -0.86510
O617        O  0.02880716  0.59064165  0.87453939    -0.86560
O618        O  0.01509500  0.94516526  0.87494017    -0.86270
O619        O  0.02632612  0.94540341  0.62640416    -0.86080
O620        O  0.15020584  0.52129407  0.56779215    -0.86450
O621        O  0.14838948  0.51292061  0.92720578    -0.85910
O622        O  0.09577528  0.51916656  0.62385533    -0.86980
O623        O  0.09482503  0.51356998  0.87248565    -0.86140
O624        O  0.01460887  0.64414398  0.57072216    -0.86530
O625        O  0.02554560  0.89196560  0.57055311    -0.86260
O626        O  0.01584416  0.89172870  0.93052587    -0.85910
O627        O  0.02664010  0.64432330  0.93011390    -0.86310
O628        O  0.14787647  0.58915605  0.99394398    -0.86610
O629        O  0.14621306  0.94425360  0.00671145    -0.87950
Zr630      Zr  0.02194372  0.60692778  0.00297037     2.83100
Zr631      Zr  0.01972676  0.92910527  0.00340067     2.83500
Zr632      Zr  0.02027128  0.51799328  0.59033043     2.84090
Zr633      Zr  0.02204130  0.51787829  0.91061285     2.83360
Zr634      Zr  0.11072149  0.51687926  0.00062762     2.84220
O635        O  0.06648128  0.97132964  0.95520820    -1.08520
O636        O  0.06568448  0.56431522  0.54466078    -1.08020
C637        C  0.13498223  0.63023960  0.99300910     1.06640
C638        C  0.13280711  0.90350011  0.00894083     1.09260
C639        C  0.01186978  0.63149884  0.61258950     1.06810
C640        C  0.02999173  0.63150062  0.88827921     1.07170
C641        C  0.01316916  0.90444651  0.88878248     1.06750
C642        C  0.02838009  0.90464707  0.61236560     1.06310
C643        C  0.13730248  0.52025068  0.60973274     1.06730
C644        C  0.13585772  0.51249760  0.88549579     1.06250
H645        H  0.08411749  0.95664173  0.56195538     0.32920
O646        O  0.06518619  0.97447158  0.54301338    -1.29620
H647        H  0.08599508  0.57967991  0.93649724     0.32950
O648        O  0.06674157  0.56200600  0.95591466    -1.31000
C649        C  0.87320314  0.36896399  0.48912287     0.03180
C650        C  0.88513612  0.32297807  0.49073949    -0.12970
C651        C  0.85262506  0.29338076  0.00554771     0.00680
C652        C  0.81233166  0.31074871  0.02236788    -0.11500
C653        C  0.79475493  0.34991712  0.00475765     0.03170
C654        C  0.82689974  0.38083475  0.48923060    -0.10920
H655        H  0.91873725  0.31178411  0.48234516     0.08760
H656        H  0.79196763  0.29084041  0.04356958     0.06290
H657        H  0.81601153  0.41384457  0.47976358     0.06140
C658        C  0.87178836  0.16535116  0.51033129     0.03180
C659        C  0.88409836  0.21132637  0.51041923    -0.12970
C660        C  0.85333671  0.24393029  0.99666566     0.00680
C661        C  0.81423002  0.22598046  0.97909078    -0.11500
C662        C  0.79614552  0.18676919  0.99664269     0.03170
C663        C  0.82548712  0.15396276  0.50945645    -0.10920
H664        H  0.91744881  0.22189917  0.51925380     0.08760
H665        H  0.79476395  0.24555275  0.95732391     0.06290
H666        H  0.81398935  0.12074232  0.51753236     0.06140
C667        C  0.66825387  0.16656437  0.48792787     0.03180
C668        C  0.71445488  0.15468676  0.48927684    -0.12970
C669        C  0.74617046  0.18644366  0.00476828     0.00680
C670        C  0.72739907  0.22566729  0.02196388    -0.11500
C671        C  0.68787076  0.24367939  0.50298003     0.03170
C672        C  0.65627971  0.21262875  0.48830207    -0.10920
H673        H  0.72584762  0.12143318  0.48084910     0.08760
H674        H  0.74595607  0.24525903  0.04461504     0.06290
H675        H  0.62312463  0.22361358  0.47914888     0.06140
C676        C  0.66835138  0.37001663  0.51053032     0.03180
C677        C  0.71466363  0.38156941  0.50975626    -0.12970
C678        C  0.74589744  0.34971201  0.49480994     0.00680
C679        C  0.72815413  0.31041053  0.97752501    -0.11500
C680        C  0.68819975  0.29306300  0.49415946     0.03170
C681        C  0.65625841  0.32410235  0.50934156    -0.10920
H682        H  0.72574726  0.41460701  0.51887749     0.08760
H683        H  0.74836709  0.29096492  0.95542661     0.06290
H684        H  0.62272292  0.31319896  0.51821014     0.06140
C685        C  0.87486902  0.02175983  0.34680405     0.03180
C686        C  0.88418051  0.04158390  0.30369683    -0.12970
C687        C  0.84867315  0.05951904  0.27855597     0.00680
C688        C  0.80689533  0.06038873  0.30101250    -0.11500
C689        C  0.79587938  0.02754381  0.33260345     0.03170
C690        C  0.83036775  0.00961597  0.35797326    -0.10920
H691        H  0.91827996  0.04481570  0.29112726     0.08760
H692        H  0.78021054  0.08048146  0.28932443     0.06290
H693        H  0.82283134  0.98760751  0.38620646     0.06140
C694        C  0.67172977  0.01159709  0.34950908     0.03180
C695        C  0.71729989  0.01324371  0.36188300    -0.12970
C696        C  0.75075500  0.00745858  0.32863407     0.00680
C697        C  0.73805999  0.99571089  0.28457866    -0.11500
C698        C  0.69441961  0.00459002  0.27023343     0.03170
C699        C  0.66064970  0.01008286  0.30303106    -0.10920
H700        H  0.72667932  0.02149337  0.39630980     0.08760
H701        H  0.76419768  0.99134750  0.25878606     0.06290
H702        H  0.62667974  0.01595971  0.29225662     0.06140
C703        C  0.67382964  0.02083491  0.14462551     0.03180
C704        C  0.66398737  0.00764934  0.18975529    -0.12970
C705        C  0.69072523  0.02389217  0.22416496     0.00680
C706        C  0.72171821  0.05654600  0.21290391    -0.11500
C707        C  0.74305833  0.05621921  0.17020706     0.03170
C708        C  0.71703322  0.03936050  0.13430272    -0.10920
H709        H  0.63573625  0.98640007  0.19787749     0.08760
H710        H  0.73404519  0.07546740  0.24036036     0.06290
H711        H  0.72881130  0.04280675  0.09945028     0.06140
C712        C  0.86870616  0.03579007  0.15262288     0.03180
C713        C  0.88008398  0.04417598  0.19847813    -0.12970
C714        C  0.84995857  0.06708478  0.22754548     0.00680
C715        C  0.81238582  0.08619842  0.20681530    -0.11500
C716        C  0.79323654  0.06498932  0.16896507     0.03170
C717        C  0.82327870  0.04177162  0.13984979    -0.10920
H718        H  0.91171230  0.03252561  0.21130905     0.08760
H719        H  0.79327531  0.11110979  0.22514911     0.06290
H720        H  0.81155574  0.02826077  0.10805772     0.06140
C721        C  0.51652051  0.16757186  0.34961671     0.03180
C722        C  0.49917381  0.16067867  0.30526546    -0.12970
C723        C  0.49144994  0.19733903  0.27629702     0.00680
C724        C  0.49991139  0.23990215  0.29430280    -0.11500
C725        C  0.52548806  0.24631621  0.33289949     0.03170
C726        C  0.53238623  0.21031165  0.36174077    -0.10920
H727        H  0.49097336  0.12745193  0.29396416     0.08760
H728        H  0.49238339  0.26957903  0.27562800     0.06290
H729        H  0.55042078  0.21536002  0.39297306     0.06140
C730        C  0.53493305  0.36859812  0.34973706     0.03180
C731        C  0.53204740  0.32379261  0.36416885    -0.12970
C732        C  0.54892399  0.28992591  0.33610935     0.00680
C733        C  0.57335315  0.30271530  0.29715265    -0.11500
C734        C  0.56034684  0.34187713  0.27448383     0.03170
C735        C  0.54448567  0.37696002  0.30282705    -0.10920
H736        H  0.51551920  0.31522747  0.39605800     0.08760
H737        H  0.59142115  0.27688915  0.27893335     0.06290
H738        H  0.53828396  0.40952231  0.28867751     0.06140
C739        C  0.51073383  0.16749923  0.15126998     0.03180
C740        C  0.50000781  0.15913423  0.19791101    -0.12970
C741        C  0.48258360  0.19394858  0.22562865     0.00680
C742        C  0.46933295  0.23279924  0.20260698    -0.11500
C743        C  0.49408913  0.24582646  0.16396248     0.03170
C744        C  0.51264786  0.21225169  0.13660843    -0.10920
H745        H  0.50647174  0.12676942  0.21241123     0.08760
H746        H  0.45073729  0.25840737  0.22066635     0.06290
H747        H  0.52949416  0.22106532  0.10496080     0.06140
C748        C  0.52216868  0.36906415  0.15186889     0.03180
C749        C  0.54075144  0.37576899  0.19576027    -0.12970
C750        C  0.55039088  0.33891728  0.22391459     0.00680
C751        C  0.54282421  0.29640451  0.20527047    -0.11500
C752        C  0.51636314  0.28991203  0.16731287     0.03170
C753        C  0.50717661  0.32613496  0.13956294    -0.10920
H754        H  0.54848363  0.40903447  0.20726901     0.08760
H755        H  0.55159177  0.26656824  0.22309749     0.06290
H756        H  0.48841401  0.32096949  0.10880894     0.06140
O757        O  0.94918603  0.39126343  0.49298934    -0.86440
O758        O  0.94753250  0.14337174  0.50415912    -0.86610
O759        O  0.89185115  0.02093655  0.07633830    -0.88280
O760        O  0.89640962  0.01808748  0.42355030    -0.87030
O761        O  0.95077127  0.01705401  0.36725562    -0.86620
O762        O  0.94543640  0.02272816  0.13148734    -0.87990
O763        O  0.89337627  0.08940528  0.50467108    -0.86470
O764        O  0.89428448  0.44461929  0.49367456    -0.86060
Zr765      Zr  0.93032501  0.01688432  0.49873639     2.84160
O766        O  0.97506716  0.06235985  0.45181097    -1.08030
O767        O  0.97414320  0.47377958  0.05018970    -1.08760
C768        C  0.90787455  0.40386175  0.49127717     1.06670
C769        C  0.90645606  0.13034996  0.50693916     1.06610
C770        C  0.90421918  0.02439734  0.11812991     1.09590
C771        C  0.90969910  0.01783412  0.38133190     1.07370
H772        H  0.95814705  0.08100268  0.06767202     0.32930
O773        O  0.97661578  0.06208786  0.04855352    -1.28990
H774        H  0.95865506  0.45434363  0.43230142     0.32600
O775        O  0.97642390  0.47306085  0.45160935    -1.30670
O776        O  0.59230766  0.14487039  0.49366645    -0.86440
O777        O  0.59245687  0.39188440  0.50661787    -0.87930
O778        O  0.51866093  0.09047335  0.13169142    -0.86510
O779        O  0.51957132  0.09046629  0.36970681    -0.86560
O780        O  0.52581438  0.44548726  0.36950751    -0.86270
O781        O  0.52123131  0.44617762  0.13195553    -0.86080
O782        O  0.65100504  0.01984143  0.06851174    -0.86450
O783        O  0.64838697  0.01391051  0.42628863    -0.85910
O784        O  0.59695329  0.01737156  0.12495818    -0.86980
O785        O  0.59533270  0.01705409  0.37112129    -0.86140
O786        O  0.52101850  0.14295092  0.07510784    -0.86530
O787        O  0.51752857  0.39347263  0.07552573    -0.86260
O788        O  0.52649021  0.39309580  0.42609875    -0.85910
O789        O  0.51809888  0.14336766  0.42611136    -0.86310
O790        O  0.64650817  0.09084732  0.49242946    -0.86610
O791        O  0.64666209  0.44574887  0.50538846    -0.87950
Zr792      Zr  0.52062532  0.10729507  0.50041063     2.83100
Zr793      Zr  0.52045004  0.42892029  0.50074514     2.83500
Zr794      Zr  0.52072737  0.01810173  0.09319898     2.84090
Zr795      Zr  0.52186335  0.01792476  0.40778017     2.83360
Zr796      Zr  0.61029252  0.01827420  0.49911290     2.84220
O797        O  0.56639071  0.47270583  0.45357571    -1.08520
O798        O  0.56653967  0.06338525  0.04670751    -1.08020
C799        C  0.63342327  0.13181738  0.49069009     1.06640
C800        C  0.63356045  0.40486862  0.50817687     1.09260
C801        C  0.51836859  0.13115652  0.11745012     1.06810
C802        C  0.51832062  0.13125311  0.38381986     1.07170
C803        C  0.52787682  0.40487343  0.38373552     1.06750
C804        C  0.51964638  0.40546807  0.11781327     1.06310
C805        C  0.63834565  0.01848451  0.11044082     1.06730
C806        C  0.63615080  0.01467717  0.38454536     1.06250
H807        H  0.58341386  0.45521059  0.06488018     0.32920
O808        O  0.56512458  0.47357330  0.04577252    -1.29620
H809        H  0.58457533  0.08135228  0.43345990     0.32950
O810        O  0.56613794  0.06306924  0.45313576    -1.31000
C811        C  0.87233227  0.37069950  0.99138950     0.03180
C812        C  0.88474703  0.32473202  0.99187963    -0.12970
C813        C  0.85275120  0.29228870  0.50544214     0.00680
C814        C  0.81269148  0.31041194  0.52229353    -0.11500
C815        C  0.79535951  0.34941439  0.50396450     0.03170
C816        C  0.82598562  0.38213974  0.99129250    -0.10920
H817        H  0.91854556  0.31404221  0.98361532     0.08760
H818        H  0.79235760  0.29122644  0.54435579     0.06290
H819        H  0.81485149  0.41529464  0.98267470     0.06140
C820        C  0.87335221  0.16707843  0.01235197     0.03180
C821        C  0.88518649  0.21309124  0.01135885    -0.12970
C822        C  0.85257597  0.24283929  0.49653733     0.00680
C823        C  0.81327829  0.22567014  0.47885966    -0.11500
C824        C  0.79490494  0.18631695  0.49567156     0.03170
C825        C  0.82708498  0.15521133  0.01150873    -0.10920
H826        H  0.91836324  0.22418542  0.02019433     0.08760
H827        H  0.79381698  0.24598460  0.45789685     0.06290
H828        H  0.81586269  0.12210109  0.02043154     0.06140
C829        C  0.66943718  0.16595288  0.98820632     0.03180
C830        C  0.71576401  0.15438260  0.98979790    -0.12970
C831        C  0.74507845  0.18651212  0.50401694     0.00680
C832        C  0.72678481  0.22598548  0.52110205    -0.11500
C833        C  0.68840453  0.24314844  0.00369372     0.03170
C834        C  0.65720782  0.21193663  0.98859648    -0.10920
H835        H  0.72738547  0.12120737  0.98137414     0.08760
H836        H  0.74601921  0.24587011  0.54283090     0.06290
H837        H  0.62406747  0.22275524  0.97919736     0.06140
C838        C  0.66778109  0.36944978  0.01060264     0.03180
C839        C  0.71396064  0.38134912  0.01001057    -0.12970
C840        C  0.74543469  0.34972054  0.99534371     0.00680
C841        C  0.72814640  0.31070845  0.47676449    -0.11500
C842        C  0.68833338  0.29253767  0.99485311     0.03170
C843        C  0.65599368  0.32343377  0.00954622    -0.10920
H844        H  0.72478833  0.41449008  0.01907178     0.08760
H845        H  0.74779396  0.29151757  0.45385422     0.06290
H846        H  0.62247061  0.31235598  0.01821346     0.06140
C847        C  0.87606802  0.02335339  0.84888766     0.03180
C848        C  0.88586788  0.04060598  0.80444793    -0.12970
C849        C  0.85057180  0.05738748  0.77793610     0.00680
C850        C  0.80877321  0.05949883  0.80024657    -0.11500
C851        C  0.79717835  0.02795288  0.83293396     0.03170
C852        C  0.83132864  0.01151405  0.85989379    -0.10920
H853        H  0.92004638  0.04286279  0.79187663     0.08760
H854        H  0.78229301  0.07928419  0.78776987     0.06290
H855        H  0.82336653  0.99082672  0.88904363     0.06140
C856        C  0.67252770  0.01197633  0.84962018     0.03180
C857        C  0.71814176  0.01375043  0.86215022    -0.12970
C858        C  0.75177603  0.00804775  0.82898280     0.00680
C859        C  0.73905162  0.99629380  0.78488426    -0.11500
C860        C  0.69545475  0.00525145  0.77040792     0.03170
C861        C  0.66159188  0.01061938  0.80310954    -0.10920
H862        H  0.72738147  0.02192225  0.89663408     0.08760
H863        H  0.76517721  0.99168456  0.75912942     0.06290
H864        H  0.62763154  0.01640195  0.79225721     0.06140
C865        C  0.67405903  0.02087238  0.64472900     0.03180
C866        C  0.66433783  0.00820545  0.69006418    -0.12970
C867        C  0.69174537  0.02414813  0.72411448     0.00680
C868        C  0.72311718  0.05625948  0.71227791    -0.11500
C869        C  0.74429831  0.05505490  0.66952495     0.03170
C870        C  0.71765632  0.03839504  0.63395171    -0.10920
H871        H  0.63575384  0.98754919  0.69859756     0.08760
H872        H  0.73566828  0.07555717  0.73934485     0.06290
H873        H  0.72931562  0.04123021  0.59900216     0.06140
C874        C  0.86976944  0.03296499  0.65090275     0.03180
C875        C  0.88143857  0.04063721  0.69705338    -0.12970
C876        C  0.85177642  0.06394422  0.72649419     0.00680
C877        C  0.81447235  0.08369679  0.70577288    -0.11500
C878        C  0.79471453  0.06285918  0.66803108     0.03170
C879        C  0.82428480  0.03947576  0.63855744    -0.10920
H880        H  0.91298836  0.02856382  0.70970282     0.08760
H881        H  0.79603795  0.10923637  0.72388695     0.06290
H882        H  0.81221875  0.02645676  0.60669265     0.06140
C883        C  0.51670968  0.16754453  0.84950634     0.03180
C884        C  0.49911136  0.16074923  0.80525718    -0.12970
C885        C  0.49129997  0.19746328  0.77639214     0.00680
C886        C  0.49990106  0.23998669  0.79440445    -0.11500
C887        C  0.52567353  0.24629218  0.83287689     0.03170
C888        C  0.53268520  0.21023929  0.86161656    -0.10920
H889        H  0.49081063  0.12755060  0.79394859     0.08760
H890        H  0.49235671  0.26969888  0.77578883     0.06290
H891        H  0.55088599  0.21521963  0.89275821     0.06140
C892        C  0.53505546  0.36850026  0.84959370     0.03180
C893        C  0.53224162  0.32371639  0.86407191    -0.12970
C894        C  0.54916495  0.28985123  0.83605691     0.00680
C895        C  0.57356606  0.30261266  0.79706943    -0.11500
C896        C  0.56058085  0.34178973  0.77441280     0.03170
C897        C  0.54468179  0.37685912  0.80272086    -0.10920
H898        H  0.51569508  0.31515393  0.89595298     0.08760
H899        H  0.59157403  0.27676588  0.77881619     0.06290
H900        H  0.53845954  0.40941097  0.78855632     0.06140
C901        C  0.51034925  0.16766330  0.65141135     0.03180
C902        C  0.49965028  0.15930615  0.69804023    -0.12970
C903        C  0.48230371  0.19413141  0.72576637     0.00680
C904        C  0.46909472  0.23301827  0.70277833    -0.11500
C905        C  0.49380455  0.24599586  0.66408287     0.03170
C906        C  0.51228435  0.21239706  0.63672140    -0.10920
H907        H  0.50609300  0.12693231  0.71252901     0.08760
H908        H  0.45059386  0.25866475  0.72088022     0.06290
H909        H  0.52911194  0.22117973  0.60505359     0.06140
C910        C  0.52216995  0.36914624  0.65199800     0.03180
C911        C  0.54092736  0.37576444  0.69580430    -0.12970
C912        C  0.55055453  0.33886567  0.72388592     0.00680
C913        C  0.54280835  0.29638734  0.70526309    -0.11500
C914        C  0.51620494  0.29000552  0.66739471     0.03170
C915        C  0.50702799  0.32627139  0.63970192    -0.10920
H916        H  0.54879433  0.40900114  0.70730290     0.08760
H917        H  0.55152812  0.26652366  0.72307355     0.06290
H918        H  0.48815307  0.32118675  0.60900597     0.06140
O919        O  0.94774180  0.39257738  0.99785626    -0.86440
O920        O  0.94959087  0.14470817  0.00806331    -0.86610
O921        O  0.89246123  0.01933184  0.57368409    -0.88280
O922        O  0.89715645  0.01975297  0.92647666    -0.87030
O923        O  0.95194050  0.02064147  0.87072320    -0.86620
O924        O  0.94623616  0.02011182  0.62860551    -0.87990
O925        O  0.89479014  0.09140516  0.00794030    -0.86470
O926        O  0.89354757  0.44660586  0.99686837    -0.86060
Zr927      Zr  0.93059312  0.01876431  0.00264676     2.84160
O928        O  0.97600269  0.06400669  0.95617914    -1.08030
O929        O  0.97459147  0.47211176  0.54554396    -1.08760
C930        C  0.90676170  0.40563760  0.99487079     1.06670
C931        C  0.90823805  0.13215010  0.01012140     1.06610
C932        C  0.90498138  0.02208146  0.61562161     1.09590
C933        C  0.91069723  0.02035636  0.88421667     1.07370
H934        H  0.95675426  0.07930226  0.56260299     0.32930
O935        O  0.97582092  0.06108308  0.54340688    -1.28990
H936        H  0.95749947  0.45644738  0.93828310     0.32600
O937        O  0.97634388  0.47430160  0.95730829    -1.30670
O938        O  0.59342939  0.14423320  0.99360315    -0.86440
O939        O  0.59188887  0.39123897  0.00645213    -0.87930
O940        O  0.51835543  0.09065545  0.63193074    -0.86510
O941        O  0.51966709  0.09040685  0.86943206    -0.86560
O942        O  0.52589438  0.44537802  0.86922188    -0.86270
O943        O  0.52103188  0.44628212  0.63220224    -0.86080
O944        O  0.65086792  0.02021117  0.56872367    -0.86450
O945        O  0.64888623  0.01372956  0.92627449    -0.85910
O946        O  0.59689730  0.01758502  0.62525815    -0.86980
O947        O  0.59586139  0.01702035  0.87105902    -0.86140
O948        O  0.52038519  0.14308589  0.57528209    -0.86530
O949        O  0.51770634  0.39359762  0.57570666    -0.86260
O950        O  0.52633307  0.39301971  0.92587050    -0.85910
O951        O  0.51869693  0.14323221  0.92592562    -0.86310
O952        O  0.64751576  0.09011919  0.99232881    -0.86610
O953        O  0.64615854  0.44504711  0.00513461    -0.87950
Zr954      Zr  0.52136918  0.10714286  0.00019708     2.83100
Zr955      Zr  0.52022132  0.42877204  0.00050672     2.83500
Zr956      Zr  0.52042436  0.01826573  0.59354273     2.84090
Zr957      Zr  0.52194490  0.01782811  0.90739298     2.83360
Zr958      Zr  0.61050339  0.01786517  0.99884782     2.84220
O959        O  0.56628457  0.47251298  0.95334028    -1.08520
O960        O  0.56600914  0.06363755  0.54688957    -1.08020
C961        C  0.63455687  0.13113124  0.99069577     1.06640
C962        C  0.63298184  0.40419733  0.00802073     1.09260
C963        C  0.51792369  0.13131545  0.61763276     1.06810
C964        C  0.51863138  0.13117298  0.88362334     1.07170
C965        C  0.52787354  0.40478146  0.88351082     1.06750
C966        C  0.51964241  0.40557785  0.61800341     1.06310
C967        C  0.63831405  0.01872127  0.61068010     1.06730
C968        C  0.63672648  0.01469892  0.88453477     1.06250
H969        H  0.58341320  0.45558439  0.56515933     0.32920
O970        O  0.56504605  0.47390562  0.54608685    -1.29620
H971        H  0.58503747  0.08102681  0.93319056     0.32950
O972        O  0.56651208  0.06275984  0.95279836    -1.31000
C973        C  0.87320387  0.86896394  0.48912140     0.03180
C974        C  0.88513682  0.82297805  0.49073825    -0.12970
C975        C  0.85262525  0.79338082  0.00554845     0.00680
C976        C  0.81233164  0.81074860  0.02236840    -0.11500
C977        C  0.79475485  0.84991706  0.00475826     0.03170
C978        C  0.82690049  0.88083472  0.48922930    -0.10920
H979        H  0.91873789  0.81178401  0.48234375     0.08760
H980        H  0.79196758  0.79084017  0.04356991     0.06290
H981        H  0.81601222  0.91384447  0.47976209     0.06140
C982        C  0.87178886  0.66535149  0.51033143     0.03180
C983        C  0.88409894  0.71132664  0.51041912    -0.12970
C984        C  0.85333715  0.74393038  0.99666604     0.00680
C985        C  0.81423051  0.72598063  0.97909108    -0.11500
C986        C  0.79614613  0.68676921  0.99664262     0.03170
C987        C  0.82548767  0.65396309  0.50945654    -0.10920
H988        H  0.91744937  0.72189946  0.51925371     0.08760
H989        H  0.79476431  0.74555312  0.95732456     0.06290
H990        H  0.81398985  0.62074273  0.51753270     0.06140
C991        C  0.66825442  0.66656439  0.48792943     0.03180
C992        C  0.71445544  0.65468677  0.48927789    -0.12970
C993        C  0.74617103  0.68644355  0.00476807     0.00680
C994        C  0.72739943  0.72566711  0.02196371    -0.11500
C995        C  0.68787162  0.74367960  0.50298021     0.03170
C996        C  0.65628031  0.71262881  0.48830314    -0.10920
H997        H  0.72584807  0.62143309  0.48085045     0.08760
H998        H  0.74595614  0.74525872  0.04461522     0.06290
H999        H  0.62312513  0.72361357  0.47915026     0.06140
C1000       C  0.66835233  0.87001673  0.51053049     0.03180
C1001       C  0.71466456  0.88156953  0.50975614    -0.12970
C1002       C  0.74589827  0.84971214  0.49480961     0.00680
C1003       C  0.72815432  0.81041051  0.97752505    -0.11500
C1004       C  0.68820054  0.79306315  0.49415940     0.03170
C1005       C  0.65625936  0.82410246  0.50934183    -0.10920
H1006       H  0.72574822  0.91460715  0.51887724     0.08760
H1007       H  0.74836737  0.79096511  0.95542653     0.06290
H1008       H  0.62272393  0.81319905  0.51821063     0.06140
C1009       C  0.87486869  0.52175899  0.34680456     0.03180
C1010       C  0.88418083  0.54158197  0.30369690    -0.12970
C1011       C  0.84867407  0.55951783  0.27855575     0.00680
C1012       C  0.80689626  0.56038900  0.30101223    -0.11500
C1013       C  0.79587927  0.52754485  0.33260367     0.03170
C1014       C  0.83036705  0.50961652  0.35797394    -0.10920
H1015       H  0.91828038  0.54481262  0.29112730     0.08760
H1016       H  0.78021187  0.58048183  0.28932346     0.06290
H1017       H  0.82282996  0.48760879  0.38620756     0.06140
C1018       C  0.67172927  0.51159964  0.34950997     0.03180
C1019       C  0.71729954  0.51324516  0.36188364    -0.12970
C1020       C  0.75075434  0.50746078  0.32863418     0.00680
C1021       C  0.73805880  0.49571478  0.28457850    -0.11500
C1022       C  0.69441866  0.50459553  0.27023384     0.03170
C1023       C  0.66064898  0.51008783  0.30303186    -0.10920
H1024       H  0.72667934  0.52149322  0.39631073     0.08760
H1025       H  0.76419619  0.49135126  0.25878562     0.06290
H1026       H  0.62667906  0.51596571  0.29225783     0.06140
C1027       C  0.67382987  0.52083799  0.14462578     0.03180
C1028       C  0.66398681  0.50765417  0.18975589    -0.12970
C1029       C  0.69072439  0.52389772  0.22416536     0.00680
C1030       C  0.72171841  0.55655045  0.21290353    -0.11500
C1031       C  0.74305913  0.55622150  0.17020686     0.03170
C1032       C  0.71703393  0.53936232  0.13430280    -0.10920
H1033       H  0.63573535  0.48640545  0.19787846     0.08760
H1034       H  0.73404554  0.57547248  0.24035953     0.06290
H1035       H  0.72881246  0.54280704  0.09945035     0.06140
C1036       C  0.86870680  0.53578927  0.15262228     0.03180
C1037       C  0.88008472  0.54417424  0.19847772    -0.12970
C1038       C  0.84995984  0.56708355  0.22754523     0.00680
C1039       C  0.81238768  0.58619835  0.20681511    -0.11500
C1040       C  0.79323773  0.56498988  0.16896492     0.03170
C1041       C  0.82327937  0.54177175  0.13984935    -0.10920
H1042       H  0.91171276  0.53252303  0.21130856     0.08760
H1043       H  0.79327815  0.61111048  0.22514883     0.06290
H1044       H  0.81155614  0.52826158  0.10805709     0.06140
C1045       C  0.51652747  0.66757180  0.34961724     0.03180
C1046       C  0.49917795  0.66067861  0.30526719    -0.12970
C1047       C  0.49145356  0.69733880  0.27629892     0.00680
C1048       C  0.49991802  0.73990172  0.29430354    -0.11500
C1049       C  0.52549835  0.74631528  0.33289783     0.03170
C1050       C  0.53239668  0.71031084  0.36173938    -0.10920
H1051       H  0.49097477  0.62745216  0.29396709     0.08760
H1052       H  0.49238814  0.76957864  0.27562965     0.06290
H1053       H  0.55043306  0.71535876  0.39297064     0.06140
C1054       C  0.53494093  0.86859686  0.34973563     0.03180
C1055       C  0.53205972  0.82379113  0.36416776    -0.12970
C1056       C  0.54893455  0.78992507  0.33610624     0.00680
C1057       C  0.57335933  0.80271549  0.29714705    -0.11500
C1058       C  0.56034932  0.84187698  0.27447996     0.03170
C1059       C  0.54448914  0.87695913  0.30282480    -0.10920
H1060       H  0.51553485  0.81522504  0.39605836     0.08760
H1061       H  0.59142567  0.77688990  0.27892513     0.06290
H1062       H  0.53828382  0.90952091  0.28867570     0.06140
C1063       C  0.51072662  0.66750017  0.15127005     0.03180
C1064       C  0.50000523  0.65913466  0.19791208    -0.12970
C1065       C  0.48258198  0.69394813  0.22563163     0.00680
C1066       C  0.46932750  0.73279848  0.20261179    -0.11500
C1067       C  0.49407917  0.74582681  0.16396471     0.03170
C1068       C  0.51263604  0.71225279  0.13660827    -0.10920
H1069       H  0.50647290  0.62677038  0.21241182     0.08760
H1070       H  0.45073347  0.75840600  0.22067389     0.06290
H1071       H  0.52947884  0.72106743  0.10495907     0.06140
C1072       C  0.52216191  0.86906403  0.15186836     0.03180
C1073       C  0.54074788  0.87576860  0.19575825    -0.12970
C1074       C  0.55038814  0.83891689  0.22391195     0.00680
C1075       C  0.54281844  0.79640430  0.20526880    -0.11500
C1076       C  0.51635348  0.78991245  0.16731383     0.03170
C1077       C  0.50716645  0.82613553  0.13956412    -0.10920
H1078       H  0.54848281  0.90903381  0.20726590     0.08760
H1079       H  0.55158784  0.76656795  0.22309472     0.06290
H1080       H  0.48840176  0.82097071  0.10881134     0.06140
O1081       O  0.94918670  0.89126336  0.49298878    -0.86440
O1082       O  0.94753286  0.64337193  0.50415953    -0.86610
O1083       O  0.89185168  0.52093611  0.07633744    -0.88280
O1084       O  0.89640911  0.51808725  0.42355101    -0.87030
O1085       O  0.95077073  0.51705291  0.36725629    -0.86620
O1086       O  0.94543704  0.52272782  0.13148633    -0.87990
O1087       O  0.89337644  0.58940564  0.50467126    -0.86470
O1088       O  0.89428513  0.94461918  0.49367280    -0.86060
Zr1089     Zr  0.93032462  0.51688446  0.49873716     2.84160
O1090       O  0.97506692  0.56235969  0.45181150    -1.08030
O1091       O  0.97414273  0.97377996  0.05019048    -1.08760
C1092       C  0.90787525  0.90386166  0.49127587     1.06670
C1093       C  0.90645641  0.63035025  0.50693943     1.06610
C1094       C  0.90421977  0.52439683  0.11812905     1.09590
C1095       C  0.90969859  0.51783334  0.38133258     1.07370
H1096       H  0.95814784  0.58100255  0.06767101     0.32930
O1097       O  0.97661649  0.56208765  0.04855250    -1.28990
H1098       H  0.95865577  0.95434370  0.43230089     0.32600
O1099       O  0.97642455  0.97306085  0.45160893    -1.30670
O1100       O  0.59230823  0.64487067  0.49366857    -0.86440
O1101       O  0.59245787  0.89188411  0.50661762    -0.87930
O1102       O  0.51865781  0.59047446  0.13169134    -0.86510
O1103       O  0.51957429  0.59046687  0.36970855    -0.86560
O1104       O  0.52581821  0.94548588  0.36950612    -0.86270
O1105       O  0.52122760  0.94617692  0.13195450    -0.86080
O1106       O  0.65100573  0.51984260  0.06851181    -0.86450
O1107       O  0.64838678  0.51391187  0.42628987    -0.85910
O1108       O  0.59695376  0.51737421  0.12495812    -0.86980
O1109       O  0.59533218  0.51705457  0.37112283    -0.86140
O1110       O  0.52101491  0.64295201  0.07510774    -0.86530
O1111       O  0.51752450  0.89347183  0.07552478    -0.86260
O1112       O  0.52649495  0.89309450  0.42609743    -0.85910
O1113       O  0.51810308  0.64336882  0.42611257    -0.86310
O1114       O  0.64650848  0.59084735  0.49243154    -0.86610
O1115       O  0.64666281  0.94574888  0.50538812    -0.87950
Zr1116     Zr  0.52062564  0.60729582  0.50041209     2.83100
Zr1117     Zr  0.52045094  0.92891936  0.50074359     2.83500
Zr1118     Zr  0.52072783  0.51810238  0.09319927     2.84090
Zr1119     Zr  0.52186289  0.51792566  0.40778199     2.83360
Zr1120     Zr  0.61029219  0.51827443  0.49911434     2.84220
O1121       O  0.56639116  0.97270549  0.45357439    -1.08520
O1122       O  0.56654033  0.56338572  0.04670762    -1.08020
C1123       C  0.63342377  0.63181748  0.49069211     1.06640
C1124       C  0.63356135  0.90486858  0.50817676     1.09260
C1125       C  0.51836396  0.63115767  0.11745006     1.06810
C1126       C  0.51832535  0.63125380  0.38382117     1.07170
C1127       C  0.52788229  0.90487207  0.38373415     1.06750
C1128       C  0.51964147  0.90546745  0.11781231     1.06310
C1129       C  0.63834616  0.51848678  0.11044088     1.06730
C1130       C  0.63615042  0.51467849  0.38454663     1.06250
H1131       H  0.58341314  0.95520965  0.06487985     0.32920
O1132       O  0.56512406  0.97357260  0.04577224    -1.29620
H1133       H  0.58457558  0.58135253  0.43346170     0.32950
O1134       O  0.56613788  0.56306965  0.45313746    -1.31000
C1135       C  0.87233216  0.87069967  0.99139053     0.03180
C1136       C  0.88474712  0.82473225  0.99188062    -0.12970
C1137       C  0.85275200  0.79228887  0.50544149     0.00680
C1138       C  0.81269247  0.81041228  0.52229317    -0.11500
C1139       C  0.79536037  0.84941456  0.50396387     0.03170
C1140       C  0.82598550  0.88213979  0.99129337    -0.10920
H1141       H  0.91854573  0.81404259  0.98361640     0.08760
H1142       H  0.79235897  0.79122720  0.54435623     0.06290
H1143       H  0.81485130  0.91529467  0.98267561     0.06140
C1144       C  0.87335303  0.66707828  0.01235108     0.03180
C1145       C  0.88518719  0.71309118  0.01135850    -0.12970
C1146       C  0.85257665  0.74283948  0.49653688     0.00680
C1147       C  0.81327900  0.72567028  0.47885917    -0.11500
C1148       C  0.79490560  0.68631714  0.49567125     0.03170
C1149       C  0.82708576  0.65521116  0.01150799    -0.10920
H1150       H  0.91836398  0.72418531  0.02019390     0.08760
H1151       H  0.79381773  0.74598467  0.45789624     0.06290
H1152       H  0.81586356  0.62210080  0.02043044     0.06140
C1153       C  0.66943792  0.66595275  0.98820557     0.03180
C1154       C  0.71576474  0.65438253  0.98979733    -0.12970
C1155       C  0.74507923  0.68651240  0.50401700     0.00680
C1156       C  0.72678586  0.72598590  0.52110189    -0.11500
C1157       C  0.68840492  0.74314825  0.00369338     0.03170
C1158       C  0.65720844  0.71193644  0.98859579    -0.10920
H1159       H  0.72738630  0.62120733  0.98137356     0.08760
H1160       H  0.74602068  0.74587087  0.54282995     0.06290
H1161       H  0.62406810  0.72275499  0.97919652     0.06140
C1162       C  0.66778079  0.86944957  0.01060212     0.03180
C1163       C  0.71396035  0.88134901  0.01001051    -0.12970
C1164       C  0.74543465  0.84972047  0.99534401     0.00680
C1165       C  0.72814713  0.81070859  0.47676422    -0.11500
C1166       C  0.68833358  0.79253750  0.99485291     0.03170
C1167       C  0.65599359  0.82343349  0.00954567    -0.10920
H1168       H  0.72478786  0.91449000  0.01907184     0.08760
H1169       H  0.74779465  0.79151765  0.45385395     0.06290
H1170       H  0.62247050  0.81235557  0.01821261     0.06140
C1171       C  0.87606885  0.52334796  0.84888717     0.03180
C1172       C  0.88586665  0.54060421  0.80444866    -0.12970
C1173       C  0.85056865  0.55738324  0.77793806     0.00680
C1174       C  0.80876972  0.55948809  0.80024865    -0.11500
C1175       C  0.79717850  0.52793926  0.83293441     0.03170
C1176       C  0.83133097  0.51150266  0.85989277    -0.10920
H1177       H  0.92004490  0.54286612  0.79187769     0.08760
H1178       H  0.78228861  0.57927469  0.78777620     0.06290
H1179       H  0.82337152  0.49081310  0.88904165     0.06140
C1180       C  0.67252872  0.51196040  0.84962044     0.03180
C1181       C  0.71814261  0.51373625  0.86215070    -0.12970
C1182       C  0.75177755  0.50803062  0.82898450     0.00680
C1183       C  0.73905413  0.49627184  0.78488690    -0.11500
C1184       C  0.69545682  0.50522633  0.77040893     0.03170
C1185       C  0.66159345  0.51059663  0.80310983    -0.10920
H1186       H  0.72738176  0.52191281  0.89663356     0.08760
H1187       H  0.76518044  0.49166258  0.75913281     0.06290
H1188       H  0.62763318  0.51637770  0.79225651     0.06140
C1189       C  0.67405887  0.52086191  0.64473026     0.03180
C1190       C  0.66433988  0.50818664  0.69006370    -0.12970
C1191       C  0.69174854  0.52412439  0.72411568     0.00680
C1192       C  0.72311807  0.55623897  0.71228304    -0.11500
C1193       C  0.74429680  0.55504431  0.66952895     0.03170
C1194       C  0.71765471  0.53838857  0.63395416    -0.10920
H1195       H  0.63575637  0.48752883  0.69859461     0.08760
H1196       H  0.73566779  0.57553410  0.73935195     0.06290
H1197       H  0.72931218  0.54123110  0.59900464     0.06140
C1198       C  0.86976908  0.53296896  0.65090383     0.03180
C1199       C  0.88143771  0.54064118  0.69705464    -0.12970
C1200       C  0.85177320  0.56394398  0.72649673     0.00680
C1201       C  0.81446721  0.58369401  0.70577659    -0.11500
C1202       C  0.79471159  0.56285611  0.66803376     0.03170
C1203       C  0.82428396  0.53947679  0.63855885    -0.10920
H1204       H  0.91298839  0.52856968  0.70970366     0.08760
H1205       H  0.79602910  0.60922961  0.72389284     0.06290
H1206       H  0.81221866  0.52645722  0.60669400     0.06140
C1207       C  0.51671367  0.66754473  0.84950630     0.03180
C1208       C  0.49911380  0.66074962  0.80525786    -0.12970
C1209       C  0.49130154  0.69746374  0.77639329     0.00680
C1210       C  0.49990339  0.73998707  0.79440534    -0.11500
C1211       C  0.52567764  0.74629236  0.83287659     0.03170
C1212       C  0.53269019  0.71023931  0.86161594    -0.10920
H1213       H  0.49081221  0.62755109  0.79394961     0.08760
H1214       H  0.49235790  0.76969930  0.77579026     0.06290
H1215       H  0.55089196  0.71521942  0.89275702     0.06140
C1216       C  0.53505781  0.86850048  0.84959313     0.03180
C1217       C  0.53224575  0.82371653  0.86407150    -0.12970
C1218       C  0.54916883  0.78985164  0.83605597     0.00680
C1219       C  0.57356833  0.80261354  0.79706760    -0.11500
C1220       C  0.56058168  0.84179044  0.77441150     0.03170
C1221       C  0.54468266  0.87685950  0.80272003    -0.10920
H1222       H  0.51570035  0.81515366  0.89595304     0.08760
H1223       H  0.59157590  0.77676704  0.77881348     0.06290
H1224       H  0.53845897  0.90941111  0.78855557     0.06140
C1225       C  0.51034770  0.66766425  0.65141234     0.03180
C1226       C  0.49965008  0.65930696  0.69804142    -0.12970
C1227       C  0.48230346  0.69413182  0.72576799     0.00680
C1228       C  0.46909299  0.73301848  0.70278048    -0.11500
C1229       C  0.49380121  0.74599646  0.66408407     0.03170
C1230       C  0.51228078  0.71239797  0.63672206    -0.10920
H1231       H  0.50609423  0.62693337  0.71253011     0.08760
H1232       H  0.45059260  0.75866471  0.72088325     0.06290
H1233       H  0.52910720  0.72118101  0.60505372     0.06140
C1234       C  0.52216863  0.86914638  0.65199722     0.03180
C1235       C  0.54092674  0.87576476  0.69580318    -0.12970
C1236       C  0.55055367  0.83886616  0.72388505     0.00680
C1237       C  0.54280615  0.79638784  0.70526295    -0.11500
C1238       C  0.51620164  0.79000613  0.66739537     0.03170
C1239       C  0.50702519  0.82627179  0.63970208    -0.10920
H1240       H  0.54879478  0.90900140  0.70730120     0.08760
H1241       H  0.55152622  0.76652422  0.72307334     0.06290
H1242       H  0.48814983  0.82118718  0.60900640     0.06140
O1243       O  0.94774155  0.89257776  0.99785734    -0.86440
O1244       O  0.94959178  0.64470789  0.00806217    -0.86610
O1245       O  0.89246105  0.51933473  0.57368517    -0.88280
O1246       O  0.89715755  0.51975056  0.92647584    -0.87030
O1247       O  0.95194148  0.52063974  0.87072221    -0.86620
O1248       O  0.94623596  0.52011467  0.62860660    -0.87990
O1249       O  0.89479097  0.59140498  0.00793894    -0.86470
O1250       O  0.89354715  0.94660608  0.99686921    -0.86060
Zr1251     Zr  0.93059385  0.51876399  0.00264590     2.84160
O1252       O  0.97600350  0.56400608  0.95617791    -1.08030
O1253       O  0.97459195  0.97211185  0.54554329    -1.08760
C1254       C  0.90676143  0.90563786  0.99487181     1.06670
C1255       C  0.90823892  0.63214990  0.01012020     1.06610
C1256       C  0.90498118  0.52208500  0.61562271     1.09590
C1257       C  0.91069829  0.52035348  0.88421587     1.07370
H1258       H  0.95675463  0.57930261  0.56260316     0.32930
O1259       O  0.97582106  0.56108313  0.54340712    -1.28990
H1260       H  0.95749863  0.95644769  0.93828358     0.32600
O1261       O  0.97634295  0.97430185  0.95730895    -1.30670
O1262       O  0.59343025  0.64423311  0.99360378    -0.86440
O1263       O  0.59188835  0.89123869  0.00645227    -0.87930
O1264       O  0.51835564  0.59065648  0.63193202    -0.86510
O1265       O  0.51967046  0.59040708  0.86943219    -0.86560
O1266       O  0.52589561  0.94537823  0.86922155    -0.86270
O1267       O  0.52103246  0.94628184  0.63220064    -0.86080
O1268       O  0.65086687  0.52020771  0.56872556    -0.86450
O1269       O  0.64888664  0.51372342  0.92627452    -0.85910
O1270       O  0.59689663  0.51758087  0.62526047    -0.86980
O1271       O  0.59586235  0.51701300  0.87105847    -0.86140
O1272       O  0.52038455  0.64308686  0.57528327    -0.86530
O1273       O  0.51770584  0.89359702  0.57570543    -0.86260
O1274       O  0.52633360  0.89301963  0.92586989    -0.85910
O1275       O  0.51869933  0.64323265  0.92592561    -0.86310
O1276       O  0.64751661  0.59011907  0.99232728    -0.86610
O1277       O  0.64615804  0.94504682  0.00513319    -0.87950
Zr1278     Zr  0.52136981  0.60714311  0.00019695     2.83100
Zr1279     Zr  0.52022071  0.92877177  0.00050607     2.83500
Zr1280     Zr  0.52042397  0.51826636  0.59354454     2.84090
Zr1281     Zr  0.52194589  0.51782803  0.90739293     2.83360
Zr1282     Zr  0.61050409  0.51786537  0.99884789     2.84220
O1283       O  0.56628411  0.97251280  0.95333969    -1.08520
O1284       O  0.56600926  0.56363810  0.54689138    -1.08020
C1285       C  0.63455768  0.63113112  0.99069521     1.06640
C1286       C  0.63298139  0.90419706  0.00802008     1.09260
C1287       C  0.51792312  0.63131646  0.61763392     1.06810
C1288       C  0.51863474  0.63117328  0.88362338     1.07170
C1289       C  0.52787487  0.90478157  0.88351030     1.06750
C1290       C  0.51964205  0.90557755  0.61800212     1.06310
C1291       C  0.63831324  0.51871573  0.61068198     1.06730
C1292       C  0.63672724  0.51468954  0.88453458     1.06250
H1293       H  0.58341411  0.95558419  0.56515846     0.32920
O1294       O  0.56504686  0.97390491  0.54608559    -1.29620
H1295       H  0.58503885  0.58102649  0.93318994     0.32950
O1296       O  0.56651315  0.56276005  0.95279802    -1.31000
loop_ 
_geom_bond_atom_site_label_1 
_geom_bond_atom_site_label_2 
_geom_bond_distance 
_geom_bond_site_symmetry_2 
_ccdc_geom_bond_type 
C1            C2   1.430       .  A
C1            C6   1.427       .  A
C1          C120   1.477       .  S
C2          C165   1.402       .  A
C2            H7   1.083       .  S
C3            C4   1.396       .  A
C3          C164   1.401   1_554  A
C3           C12   1.509   1_554  S
C4            C5   1.395       .  A
C4            H8   1.054       .  S
C5          C168   1.401   1_554  A
C5          C192   1.508   1_554  S
C6          C167   1.399       .  A
C6            H9   1.083       .  S
C10          C11   1.431       .  A
C10          C15   1.429       .  A
C10         C121   1.480       .  S
C11         C174   1.402       .  A
C11          H16   1.083       .  S
C12          C13   1.394       .  A
C12         C173   1.402   1_556  A
C13          C14   1.394       .  A
C13          H17   1.052       .  S
C14         C177   1.399   1_556  A
C14          C21   1.505   1_556  S
C15         C176   1.402       .  A
C15          H18   1.083       .  S
C19          C20   1.429       .  A
C19          C24   1.429       .  A
C19         C151   1.480       .  S
C20         C183   1.401       .  A
C20          H25   1.083       .  S
C21          C22   1.395       .  A
C21         C182   1.400   1_554  A
C22         C185   1.393       .  A
C22          H26   1.052       .  S
C23          C24   1.402       .  A
C23         C184   1.395       .  A
C23          C32   1.509       .  S
C24          H27   1.083       .  S
C28          C29   1.426       .  A
C28          C33   1.430       .  A
C28         C152   1.476       .  S
C29          C30   1.399       .  A
C29          H34   1.083       .  S
C30         C193   1.395       .  A
C30         C167   1.504       .  S
C31         C192   1.396       .  A
C31         C194   1.397       .  A
C31          H35   1.055       .  S
C32          C33   1.401       .  A
C32         C193   1.395       .  A
C33          H36   1.083       .  S
C37          C38   1.429       .  A
C37          C42   1.412       .  A
C37         C123   1.475       .  S
C38          C39   1.414       .  A
C38          H43   1.082       .  S
C39          C40   1.402       .  A
C39          C66   1.521       .  S
C40          C41   1.393       .  A
C40          H44   1.062       .  S
C41          C42   1.391       .  A
C41          C48   1.485       .  S
C42          H45   1.084   1_545  S
C46          C47   1.418       .  A
C46          C51   1.408       .  A
C46         C158   1.466       .  S
C47          C48   1.396       .  A
C47          H52   1.083       .  S
C48          C49   1.400   1_545  A
C49          C50   1.403   1_565  A
C49          H53   1.086       .  S
C50          C51   1.389       .  A
C50          C57   1.475       .  S
C51          H54   1.084       .  S
C55          C56   1.408       .  A
C55          C60   1.436       .  A
C55         C157   1.472       .  S
C56          C57   1.386       .  A
C56          H61   1.084   1_545  S
C57          C58   1.387       .  A
C58          C59   1.396       .  A
C58          H62   1.058       .  S
C59          C60   1.416       .  A
C59          C68   1.523       .  S
C60          H63   1.082       .  S
C64          C65   1.422       .  A
C64          C69   1.425       .  A
C64         C122   1.496       .  S
C65          C66   1.410       .  A
C65          H70   1.082       .  S
C66          C67   1.410       .  A
C67          C68   1.412       .  A
C67          H71   1.079       .  S
C68          C69   1.411       .  A
C69          H72   1.083       .  S
C73          C74   1.421   1_455  A
C73          C78   1.417       .  A
C73         C154   1.480       .  S
C74          C75   1.412       .  A
C74          H79   1.083       .  S
C75          C76   1.409       .  A
C75          C93   1.513       .  S
C76          C77   1.393   1_655  A
C76          H80   1.075       .  S
C77          C78   1.393       .  A
C77          C84   1.488       .  S
C78          H81   1.084       .  S
C82          C83   1.415       .  A
C82          C87   1.420       .  A
C82         C155   1.484       .  S
C83          C84   1.396       .  A
C83          H88   1.084       .  S
C84          C85   1.401       .  A
C85          C86   1.411       .  A
C85          H89   1.081       .  S
C86          C87   1.416       .  A
C86         C102   1.517       .  S
C87          H90   1.082       .  S
C91          C92   1.420   1_455  A
C91          C96   1.414       .  A
C91         C153   1.484       .  S
C92          C93   1.415       .  A
C92          H97   1.082   1_655  S
C93          C94   1.410       .  A
C94          C95   1.400       .  A
C94          H98   1.082       .  S
C95          C96   1.396   1_655  A
C95         C104   1.484   1_655  S
C96          H99   1.084       .  S
C100        C101   1.422       .  A
C100        C105   1.414       .  A
C100        C156   1.480       .  S
C101        C102   1.414       .  A
C101        H106   1.082       .  S
C102        C103   1.410       .  A
C103        C104   1.393       .  A
C103        H107   1.075       .  S
C104        C105   1.390       .  A
C105        H108   1.084   1_455  S
O109        C120   1.291       .  A
O109       Zr793   2.430       .  S
O110        C121   1.292       .  A
O110       Zr792   2.436       .  S
O111        C122   1.296       .  A
O111       Zr279   2.451       .  S
O112        C123   1.298       .  A
O112       Zr117   2.459       .  S
O113        C123   1.287       .  A
O113       Zr795   2.415       .  S
O114        C122   1.299       .  A
O114       Zr794   2.465       .  S
O115        C121   1.294       .  A
O115       Zr117   2.445       .  S
O116        C120   1.294       .  A
O116       Zr441   2.441       .  S
Zr117       O273   2.451       .  S
Zr117       O440   2.441   1_545  S
Zr117       O118   2.344       .  S
Zr117       O605   2.351   1_545  S
Zr117       O451   2.336   1_545  S
Zr117       O287   2.339       .  S
O118       Zr792   2.344       .  S
O118       Zr795   2.352       .  S
O119       Zr603   2.350       .  S
O119       Zr955   2.341       .  S
O119      Zr1118   2.362       .  S
H124        O125   0.964       .  S
O125       Zr279   2.340       .  S
O125       Zr954   2.329       .  S
O125       Zr794   2.335       .  S
H126        O127   0.965       .  S
O127       Zr441   2.336       .  S
O127       Zr793   2.335       .  S
O127      Zr1119   2.338       .  S
O128        C151   1.293       .  A
O128       Zr144   2.440       .  S
O129        C152   1.290       .  A
O129       Zr145   2.424       .  S
O130        C153   1.294       .  A
O130       Zr146   2.450       .  S
O131        C154   1.295       .  A
O131       Zr147   2.455       .  S
O132        C155   1.294       .  A
O132       Zr471   2.452       .  S
O133        C156   1.293       .  A
O133       Zr470   2.446       .  S
O134        C157   1.281       .  A
O134       Zr310   2.385       .  S
O135        C158   1.285       .  A
O135       Zr148   2.396       .  S
O136        C157   1.304       .  A
O136       Zr146   2.484       .  S
O137        C158   1.292       .  A
O137       Zr147   2.433       .  S
O138        C153   1.293       .  A
O138       Zr306   2.433       .  S
O139        C156   1.292       .  A
O139       Zr307   2.431       .  S
O140        C155   1.291       .  A
O140       Zr145   2.427       .  S
O141        C154   1.291       .  A
O141       Zr144   2.425       .  S
O142        C151   1.292       .  A
O142       Zr148   2.438       .  S
O143        C152   1.294       .  A
O143       Zr472   2.447       .  S
Zr144       O758   2.428   1_455  S
Zr144       O300   2.424       .  S
Zr144       O162   2.333       .  S
Zr144       O766   2.340   1_455  S
Zr144       O935   2.327   1_455  S
Zr144       O312   2.346       .  S
Zr145       O757   2.440   1_455  S
Zr145       O301   2.425       .  S
Zr145       O149   2.339       .  S
Zr145       O929   2.344   1_455  S
Zr145       O775   2.329   1_455  S
Zr145       O322   2.332       .  S
Zr146       O762   2.473   1_455  S
Zr146       O457   2.446   1_545  S
Zr146       O150   2.353       .  S
Zr146      O1091   2.360   1_445  S
Zr146       O773   2.337   1_455  S
Zr146       O484   2.330   1_545  S
Zr147       O761   2.420   1_455  S
Zr147       O456   2.452   1_545  S
Zr147       O162   2.334       .  S
Zr147       O766   2.351   1_455  S
Zr147      O1099   2.339   1_445  S
Zr147       O473   2.344   1_545  S
Zr148       O296   2.410       .  S
Zr148       O467   2.447   1_545  S
Zr148       O162   2.338       .  S
Zr148       O473   2.341   1_545  S
Zr148       O312   2.344       .  S
Zr148       O646   2.322   1_545  S
O149       Zr471   2.344       .  S
O149       Zr472   2.341       .  S
O150       Zr306   2.341       .  S
O150       Zr310   2.351       .  S
H159        O160   0.965       .  S
O160       Zr307   2.328       .  S
O160       Zr470   2.330       .  S
O160       Zr634   2.339       .  S
H161        O162   0.965       .  S
C163        C164   1.430       .  A
C163        C168   1.428       .  A
C163        C282   1.479       .  S
C164        H169   1.083       .  S
C165        C166   1.395       .  A
C165        C174   1.510       .  S
C166        C167   1.394       .  A
C166        H170   1.053       .  S
C168        H171   1.083       .  S
C172        C173   1.431       .  A
C172        C177   1.427       .  A
C172        C283   1.477       .  S
C173        H178   1.083       .  S
C174        C175   1.395       .  A
C175        C176   1.394       .  A
C175        H179   1.052       .  S
C176        C183   1.509       .  S
C177        H180   1.083       .  S
C181        C182   1.427       .  A
C181        C186   1.431       .  A
C181        C313   1.478       .  S
C182        H187   1.083       .  S
C183        C184   1.396       .  A
C184        H188   1.054       .  S
C185        C186   1.401   1_554  A
C185        C194   1.509   1_554  S
C186        H189   1.083       .  S
C190        C191   1.428       .  A
C190        C195   1.428       .  A
C190        C314   1.478       .  S
C191        C192   1.400   1_554  A
C191        H196   1.083       .  S
C193        H197   1.054       .  S
C194        C195   1.402   1_556  A
C195        H198   1.083       .  S
C199        C200   1.429       .  A
C199        C204   1.416       .  A
C199        C285   1.479       .  S
C200        C201   1.414       .  A
C200        H205   1.082       .  S
C201        C202   1.402       .  A
C201        C228   1.521       .  S
C202        C203   1.392       .  A
C202        H206   1.061       .  S
C203        C204   1.395       .  A
C203        C210   1.491       .  S
C204        H207   1.083   1_545  S
C208        C209   1.419       .  A
C208        C213   1.415       .  A
C208        C320   1.475       .  S
C209        C210   1.398       .  A
C209        H214   1.083       .  S
C210        C211   1.402   1_545  A
C211        C212   1.404   1_565  A
C211        H215   1.086       .  S
C212        C213   1.395       .  A
C212        C219   1.487       .  S
C213        H216   1.083       .  S
C217        C218   1.415       .  A
C217        C222   1.437       .  A
C217        C319   1.482       .  S
C218        C219   1.392       .  A
C218        H223   1.083   1_545  S
C219        C220   1.389       .  A
C220        C221   1.399       .  A
C220        H224   1.059       .  S
C221        C222   1.417       .  A
C221        C230   1.527       .  S
C222        H225   1.082       .  S
C226        C227   1.422       .  A
C226        C231   1.428       .  A
C226        C284   1.498       .  S
C227        C228   1.410       .  A
C227        H232   1.082       .  S
C228        C229   1.410       .  A
C229        C230   1.412       .  A
C229        H233   1.079       .  S
C230        C231   1.414       .  A
C231        H234   1.082       .  S
C235        C236   1.424       .  A
C235        C240   1.428       .  A
C235        C316   1.473       .  S
C236        C237   1.397       .  A
C236        H241   1.083       .  S
C237        C238   1.395   1_455  A
C237        C255   1.499       .  S
C238        C239   1.394   1_655  A
C238        H242   1.055       .  S
C239        C240   1.401       .  A
C239        C246   1.504       .  S
C240        H243   1.083       .  S
C244        C245   1.427       .  A
C244        C249   1.423       .  A
C244        C317   1.469       .  S
C245        C246   1.399       .  A
C245        H250   1.083       .  S
C246        C247   1.396       .  A
C247        C248   1.396       .  A
C247        H251   1.056       .  S
C248        C249   1.395       .  A
C248        C264   1.499       .  S
C249        H252   1.083       .  S
C253        C254   1.424       .  A
C253        C258   1.429       .  A
C253        C315   1.471       .  S
C254        C255   1.396       .  A
C254        H259   1.083       .  S
C255        C256   1.393       .  A
C256        C257   1.394       .  A
C256        H260   1.052       .  S
C257        C258   1.400       .  A
C257        C266   1.505       .  S
C258        H261   1.083       .  S
C262        C263   1.425       .  A
C262        C267   1.429       .  A
C262        C318   1.472       .  S
C263        C264   1.397       .  A
C263        H268   1.083       .  S
C264        C265   1.392   1_455  A
C265        C266   1.393   1_655  A
C265        H269   1.052       .  S
C266        C267   1.401       .  A
C267        H270   1.083       .  S
O271        C282   1.292       .  A
O271       Zr955   2.432   1_556  S
O272        C283   1.292       .  A
O272       Zr954   2.433       .  S
O273        C284   1.295       .  A
O274        C285   1.298       .  A
O274       Zr279   2.459   1_556  S
O275        C285   1.289       .  A
O275       Zr957   2.425       .  S
O276        C284   1.300       .  A
O276       Zr956   2.472       .  S
O277        C283   1.294       .  A
O277       Zr279   2.443       .  S
O278        C282   1.294       .  A
O278       Zr603   2.442   1_556  S
Zr279       O602   2.442   1_544  S
Zr279       O280   2.345   1_554  S
Zr279       O443   2.350   1_545  S
Zr279       O613   2.335   1_544  S
O280       Zr954   2.346   1_556  S
O280       Zr957   2.352       .  S
O281       Zr441   2.351       .  S
O281       Zr793   2.343       .  S
O281      Zr1280   2.362       .  S
H286        O287   0.964       .  S
O287       Zr792   2.328       .  S
O287       Zr956   2.337       .  S
H288        O289   0.965       .  S
O289       Zr603   2.335   1_556  S
O289       Zr955   2.335   1_556  S
O289      Zr1281   2.339       .  S
O290        C313   1.290       .  A
O290       Zr306   2.424   1_556  S
O291        C314   1.293       .  A
O291       Zr307   2.438       .  S
O292        C315   1.293       .  A
O292       Zr308   2.437       .  S
O293        C316   1.294       .  A
O293       Zr309   2.441       .  S
O294        C317   1.293       .  A
O294       Zr633   2.434       .  S
O295        C318   1.294       .  A
O295       Zr632   2.437       .  S
O296        C319   1.286       .  A
O297        C320   1.288       .  A
O297       Zr310   2.419   1_556  S
O298        C319   1.302       .  A
O298       Zr308   2.479       .  S
O299        C320   1.292       .  A
O299       Zr309   2.432       .  S
O300        C315   1.290       .  A
O301        C318   1.290       .  A
O302        C317   1.290       .  A
O302       Zr307   2.422   1_556  S
O303        C316   1.290       .  A
O303       Zr306   2.423   1_556  S
O304        C313   1.294       .  A
O304       Zr310   2.450   1_556  S
O305        C314   1.292       .  A
O305       Zr634   2.435       .  S
Zr306       O920   2.443   1_455  S
Zr306       O928   2.348   1_454  S
Zr306       O773   2.324   1_455  S
Zr306       O324   2.334   1_554  S
Zr307       O919   2.426   1_454  S
Zr307       O767   2.339   1_455  S
Zr307       O937   2.330   1_454  S
Zr307       O311   2.349   1_554  S
Zr308       O924   2.465   1_455  S
Zr308       O619   2.437   1_545  S
Zr308      O1253   2.359   1_445  S
Zr308       O935   2.327   1_455  S
Zr308       O312   2.353       .  S
Zr308       O646   2.317   1_545  S
Zr309       O923   2.421   1_455  S
Zr309       O618   2.434   1_545  S
Zr309       O928   2.352   1_455  S
Zr309      O1261   2.327   1_445  S
Zr309       O635   2.347   1_545  S
Zr309       O324   2.320       .  S
Zr310       O629   2.435   1_545  S
Zr310       O635   2.339   1_544  S
Zr310       O324   2.316   1_554  S
Zr310       O484   2.339   1_545  S
O311       Zr633   2.347       .  S
O311       Zr634   2.339   1_556  S
H321        O322   0.964       .  S
O322       Zr632   2.317       .  S
O322       Zr472   2.322       .  S
H323        O324   0.964       .  S
C325        C326   1.430       .  A
C325        C330   1.427       .  A
C325        C444   1.477       .  S
C326        C489   1.402       .  A
C326        H331   1.083       .  S
C327        C488   1.401   1_554  A
C327        C328   1.396       .  A
C327        C336   1.509   1_554  S
C328        C329   1.395       .  A
C328        H332   1.054       .  S
C329        C492   1.401   1_554  A
C329        C516   1.508   1_554  S
C330        C491   1.399       .  A
C330        H333   1.083       .  S
C334        C335   1.431       .  A
C334        C339   1.429       .  A
C334        C445   1.480       .  S
C335        C498   1.402       .  A
C335        H340   1.083       .  S
C336        C497   1.402   1_556  A
C336        C337   1.394       .  A
C337        C338   1.394       .  A
C337        H341   1.052       .  S
C338        C501   1.399   1_556  A
C338        C345   1.505   1_556  S
C339        C500   1.402       .  A
C339        H342   1.083       .  S
C343        C344   1.429       .  A
C343        C348   1.429       .  A
C343        C475   1.480       .  S
C344        C507   1.401       .  A
C344        H349   1.083       .  S
C345        C506   1.400   1_554  A
C345        C346   1.395       .  A
C346        C509   1.393       .  A
C346        H350   1.052       .  S
C347        C508   1.395       .  A
C347        C348   1.402       .  A
C347        C356   1.509       .  S
C348        H351   1.083       .  S
C352        C353   1.426       .  A
C352        C357   1.430       .  A
C352        C476   1.476       .  S
C353        C354   1.399       .  A
C353        H358   1.083       .  S
C354        C517   1.395       .  A
C354        C491   1.504       .  S
C355        C516   1.396       .  A
C355        C518   1.397       .  A
C355        H359   1.055       .  S
C356        C517   1.395       .  A
C356        C357   1.401       .  A
C357        H360   1.083       .  S
C361        C362   1.429       .  A
C361        C366   1.412       .  A
C361        C447   1.475       .  S
C362        C363   1.414       .  A
C362        H367   1.082       .  S
C363        C364   1.402       .  A
C363        C390   1.521       .  S
C364        C365   1.393       .  A
C364        H368   1.062       .  S
C365        C366   1.391       .  A
C365        C372   1.485       .  S
C366        H369   1.084       .  S
C370        C371   1.418       .  A
C370        C375   1.408       .  A
C370        C482   1.466       .  S
C371        C372   1.396       .  A
C371        H376   1.083       .  S
C372        C373   1.400       .  A
C373        C374   1.403       .  A
C373        H377   1.086       .  S
C374        C375   1.389       .  A
C374        C381   1.475       .  S
C375        H378   1.084       .  S
C379        C380   1.408       .  A
C379        C384   1.436       .  A
C379        C481   1.472       .  S
C380        C381   1.386       .  A
C380        H385   1.084       .  S
C381        C382   1.387       .  A
C382        C383   1.396       .  A
C382        H386   1.058       .  S
C383        C384   1.416       .  A
C383        C392   1.523       .  S
C384        H387   1.082       .  S
C388        C389   1.422       .  A
C388        C393   1.425       .  A
C388        C446   1.496       .  S
C389        C390   1.410       .  A
C389        H394   1.082       .  S
C390        C391   1.410       .  A
C391        C392   1.412       .  A
C391        H395   1.079       .  S
C392        C393   1.411       .  A
C393        H396   1.083       .  S
C397        C398   1.421   1_455  A
C397        C402   1.417       .  A
C397        C478   1.480       .  S
C398        C399   1.412       .  A
C398        H403   1.083       .  S
C399        C400   1.409       .  A
C399        C417   1.513       .  S
C400        C401   1.393   1_655  A
C400        H404   1.075       .  S
C401        C402   1.393       .  A
C401        C408   1.488       .  S
C402        H405   1.084       .  S
C406        C407   1.415       .  A
C406        C411   1.420       .  A
C406        C479   1.484       .  S
C407        C408   1.396       .  A
C407        H412   1.084       .  S
C408        C409   1.401       .  A
C409        C410   1.411       .  A
C409        H413   1.081       .  S
C410        C411   1.416       .  A
C410        C426   1.517       .  S
C411        H414   1.082       .  S
C415        C416   1.420   1_455  A
C415        C420   1.414       .  A
C415        C477   1.484       .  S
C416        C417   1.415       .  A
C416        H421   1.082   1_655  S
C417        C418   1.410       .  A
C418        C419   1.400       .  A
C418        H422   1.082       .  S
C419        C420   1.396   1_655  A
C419        C428   1.484   1_655  S
C420        H423   1.084       .  S
C424        C425   1.422       .  A
C424        C429   1.414       .  A
C424        C480   1.480       .  S
C425        C426   1.414       .  A
C425        H430   1.082       .  S
C426        C427   1.410       .  A
C427        C428   1.393       .  A
C427        H431   1.075       .  S
C428        C429   1.390       .  A
C429        H432   1.084   1_455  S
O433        C444   1.291       .  A
O433      Zr1117   2.430       .  S
O434        C445   1.292       .  A
O434      Zr1116   2.436       .  S
O435        C446   1.296       .  A
O435       Zr603   2.451       .  S
O436        C447   1.298       .  A
O436       Zr441   2.459       .  S
O437        C447   1.287       .  A
O437      Zr1119   2.415       .  S
O438        C446   1.299       .  A
O438      Zr1118   2.465       .  S
O439        C445   1.294       .  A
O439       Zr441   2.445       .  S
O440        C444   1.294       .  A
Zr441       O597   2.451       .  S
Zr441       O442   2.344       .  S
Zr441       O611   2.339       .  S
O442      Zr1116   2.344       .  S
O442      Zr1119   2.352       .  S
O443      Zr1279   2.341       .  S
O443       Zr794   2.362   1_565  S
H448        O449   0.964       .  S
O449       Zr603   2.340       .  S
O449      Zr1278   2.329       .  S
O449      Zr1118   2.335       .  S
H450        O451   0.965       .  S
O451      Zr1117   2.335       .  S
O451       Zr795   2.338   1_565  S
O452        C475   1.293       .  A
O452       Zr468   2.440       .  S
O453        C476   1.290       .  A
O453       Zr469   2.424       .  S
O454        C477   1.294       .  A
O454       Zr470   2.450       .  S
O455        C478   1.295       .  A
O455       Zr471   2.455       .  S
O456        C479   1.294       .  A
O457        C480   1.293       .  A
O458        C481   1.281       .  A
O458       Zr634   2.385       .  S
O459        C482   1.285       .  A
O459       Zr472   2.396       .  S
O460        C481   1.304       .  A
O460       Zr470   2.484       .  S
O461        C482   1.292       .  A
O461       Zr471   2.433       .  S
O462        C477   1.293       .  A
O462       Zr630   2.433       .  S
O463        C480   1.292       .  A
O463       Zr631   2.431       .  S
O464        C479   1.291       .  A
O464       Zr469   2.427       .  S
O465        C478   1.291       .  A
O465       Zr468   2.425       .  S
O466        C475   1.292       .  A
O466       Zr472   2.438       .  S
O467        C476   1.294       .  A
Zr468      O1082   2.428   1_455  S
Zr468       O624   2.424       .  S
Zr468      O1090   2.340   1_455  S
Zr468      O1259   2.327   1_455  S
Zr468       O636   2.346       .  S
Zr468       O486   2.333       .  S
Zr469      O1081   2.440   1_455  S
Zr469       O625   2.425       .  S
Zr469      O1253   2.344   1_455  S
Zr469      O1099   2.329   1_455  S
Zr469       O473   2.339       .  S
Zr469       O646   2.332       .  S
Zr470      O1086   2.473   1_455  S
Zr470       O767   2.360   1_455  S
Zr470      O1097   2.337   1_455  S
Zr470       O474   2.353       .  S
Zr471      O1085   2.420   1_455  S
Zr471      O1090   2.351   1_455  S
Zr471       O775   2.339   1_455  S
Zr471       O486   2.334       .  S
Zr472       O620   2.410       .  S
Zr472       O636   2.344       .  S
Zr472       O486   2.338       .  S
O474       Zr630   2.341       .  S
O474       Zr634   2.351       .  S
H483        O484   0.965       .  S
O484       Zr631   2.328       .  S
H485        O486   0.965       .  S
C487        C488   1.430       .  A
C487        C492   1.428       .  A
C487        C606   1.479       .  S
C488        H493   1.083       .  S
C489        C490   1.395       .  A
C489        C498   1.510       .  S
C490        C491   1.394       .  A
C490        H494   1.053       .  S
C492        H495   1.083       .  S
C496        C497   1.431       .  A
C496        C501   1.427       .  A
C496        C607   1.477       .  S
C497        H502   1.083       .  S
C498        C499   1.395       .  A
C499        C500   1.394       .  A
C499        H503   1.052       .  S
C500        C507   1.509       .  S
C501        H504   1.083       .  S
C505        C506   1.427       .  A
C505        C510   1.431       .  A
C505        C637   1.478       .  S
C506        H511   1.083       .  S
C507        C508   1.396       .  A
C508        H512   1.054       .  S
C509        C510   1.401   1_554  A
C509        C518   1.509   1_554  S
C510        H513   1.083       .  S
C514        C515   1.428       .  A
C514        C519   1.428       .  A
C514        C638   1.478       .  S
C515        C516   1.400   1_554  A
C515        H520   1.083       .  S
C517        H521   1.054       .  S
C518        C519   1.402   1_556  A
C519        H522   1.083       .  S
C523        C524   1.429       .  A
C523        C528   1.416       .  A
C523        C609   1.479       .  S
C524        C525   1.414       .  A
C524        H529   1.082       .  S
C525        C526   1.402       .  A
C525        C552   1.521       .  S
C526        C527   1.392       .  A
C526        H530   1.061       .  S
C527        C528   1.395       .  A
C527        C534   1.491       .  S
C528        H531   1.083       .  S
C532        C533   1.419       .  A
C532        C537   1.415       .  A
C532        C644   1.475       .  S
C533        C534   1.398       .  A
C533        H538   1.083       .  S
C534        C535   1.402       .  A
C535        C536   1.404       .  A
C535        H539   1.086       .  S
C536        C537   1.395       .  A
C536        C543   1.487       .  S
C537        H540   1.083       .  S
C541        C542   1.415       .  A
C541        C546   1.437       .  A
C541        C643   1.482       .  S
C542        C543   1.392       .  A
C542        H547   1.083       .  S
C543        C544   1.389       .  A
C544        C545   1.399       .  A
C544        H548   1.059       .  S
C545        C546   1.417       .  A
C545        C554   1.527       .  S
C546        H549   1.082       .  S
C550        C551   1.422       .  A
C550        C555   1.428       .  A
C550        C608   1.498       .  S
C551        C552   1.410       .  A
C551        H556   1.082       .  S
C552        C553   1.410       .  A
C553        C554   1.412       .  A
C553        H557   1.079       .  S
C554        C555   1.414       .  A
C555        H558   1.082       .  S
C559        C560   1.424       .  A
C559        C564   1.428       .  A
C559        C640   1.473       .  S
C560        C561   1.397       .  A
C560        H565   1.083       .  S
C561        C562   1.395   1_455  A
C561        C579   1.499       .  S
C562        C563   1.394   1_655  A
C562        H566   1.055       .  S
C563        C564   1.401       .  A
C563        C570   1.504       .  S
C564        H567   1.083       .  S
C568        C569   1.427       .  A
C568        C573   1.423       .  A
C568        C641   1.469       .  S
C569        C570   1.399       .  A
C569        H574   1.083       .  S
C570        C571   1.396       .  A
C571        C572   1.396       .  A
C571        H575   1.056       .  S
C572        C573   1.395       .  A
C572        C588   1.499       .  S
C573        H576   1.083       .  S
C577        C578   1.424       .  A
C577        C582   1.429       .  A
C577        C639   1.471       .  S
C578        C579   1.396       .  A
C578        H583   1.083       .  S
C579        C580   1.393       .  A
C580        C581   1.394       .  A
C580        H584   1.052       .  S
C581        C582   1.400       .  A
C581        C590   1.505       .  S
C582        H585   1.083       .  S
C586        C587   1.425       .  A
C586        C591   1.429       .  A
C586        C642   1.472       .  S
C587        C588   1.397       .  A
C587        H592   1.083       .  S
C588        C589   1.392   1_455  A
C589        C590   1.393   1_655  A
C589        H593   1.052       .  S
C590        C591   1.401       .  A
C591        H594   1.083       .  S
O595        C606   1.292       .  A
O595      Zr1279   2.432   1_556  S
O596        C607   1.292       .  A
O596      Zr1278   2.433       .  S
O597        C608   1.295       .  A
O598        C609   1.298       .  A
O598       Zr603   2.459   1_556  S
O599        C609   1.289       .  A
O599      Zr1281   2.425       .  S
O600        C608   1.300       .  A
O600      Zr1280   2.472       .  S
O601        C607   1.294       .  A
O601       Zr603   2.443       .  S
O602        C606   1.294       .  A
Zr603       O604   2.345   1_554  S
O604      Zr1278   2.346   1_556  S
O604      Zr1281   2.352       .  S
O605      Zr1117   2.343       .  S
O605       Zr956   2.362   1_565  S
H610        O611   0.964       .  S
O611      Zr1116   2.328       .  S
O611      Zr1280   2.337       .  S
H612        O613   0.965       .  S
O613      Zr1279   2.335   1_556  S
O613       Zr957   2.339   1_565  S
O614        C637   1.290       .  A
O614       Zr630   2.424   1_556  S
O615        C638   1.293       .  A
O615       Zr631   2.438       .  S
O616        C639   1.293       .  A
O616       Zr632   2.437       .  S
O617        C640   1.294       .  A
O617       Zr633   2.441       .  S
O618        C641   1.293       .  A
O619        C642   1.294       .  A
O620        C643   1.286       .  A
O621        C644   1.288       .  A
O621       Zr634   2.419   1_556  S
O622        C643   1.302       .  A
O622       Zr632   2.479       .  S
O623        C644   1.292       .  A
O623       Zr633   2.432       .  S
O624        C639   1.290       .  A
O625        C642   1.290       .  A
O626        C641   1.290       .  A
O626       Zr631   2.422   1_556  S
O627        C640   1.290       .  A
O627       Zr630   2.423   1_556  S
O628        C637   1.294       .  A
O628       Zr634   2.450   1_556  S
O629        C638   1.292       .  A
Zr630      O1244   2.443   1_455  S
Zr630      O1252   2.348   1_454  S
Zr630      O1097   2.324   1_455  S
Zr630       O648   2.334   1_554  S
Zr631      O1243   2.426   1_454  S
Zr631      O1091   2.339   1_455  S
Zr631      O1261   2.330   1_454  S
Zr631       O635   2.349   1_554  S
Zr632      O1248   2.465   1_455  S
Zr632       O929   2.359   1_455  S
Zr632      O1259   2.327   1_455  S
Zr632       O636   2.353       .  S
Zr633      O1247   2.421   1_455  S
Zr633      O1252   2.352   1_455  S
Zr633       O937   2.327   1_455  S
Zr633       O648   2.320       .  S
Zr634       O648   2.316   1_554  S
H645        O646   0.964       .  S
H647        O648   0.964       .  S
C649        C650   1.429       .  A
C649        C654   1.429       .  A
C649        C768   1.479       .  S
C650        C813   1.402       .  A
C650        H655   1.083       .  S
C651        C812   1.401   1_554  A
C651        C652   1.394       .  A
C651        C660   1.510   1_554  S
C652        C653   1.394       .  A
C652        H656   1.052       .  S
C653        C816   1.400   1_554  A
C653        C840   1.505   1_554  S
C654        C815   1.400       .  A
C654        H657   1.083       .  S
C658        C659   1.432       .  A
C658        C663   1.427       .  A
C658        C769   1.478       .  S
C659        C822   1.402       .  A
C659        H664   1.083       .  S
C660        C821   1.402   1_556  A
C660        C661   1.396       .  A
C661        C662   1.395       .  A
C661        H665   1.053       .  S
C662        C825   1.400   1_556  A
C662        C669   1.508   1_556  S
C663        C824   1.400       .  A
C663        H666   1.083       .  S
C667        C668   1.427       .  A
C667        C672   1.430       .  A
C667        C799   1.478       .  S
C668        C831   1.399       .  A
C668        H673   1.083       .  S
C669        C830   1.402   1_554  A
C669        C670   1.395       .  A
C670        C833   1.395       .  A
C670        H674   1.054       .  S
C671        C832   1.393       .  A
C671        C672   1.402       .  A
C671        C680   1.509       .  S
C672        H675   1.083       .  S
C676        C677   1.428       .  A
C676        C681   1.429       .  A
C676        C800   1.478       .  S
C677        C678   1.401       .  A
C677        H682   1.083       .  S
C678        C841   1.396       .  A
C678        C815   1.507       .  S
C679        C840   1.396       .  A
C679        C842   1.395       .  A
C679        H683   1.054       .  S
C680        C841   1.397       .  A
C680        C681   1.401       .  A
C681        H684   1.083       .  S
C685        C686   1.425       .  A
C685        C690   1.413       .  A
C685        C771   1.472       .  S
C686        C687   1.411       .  A
C686        H691   1.082       .  S
C687        C688   1.402       .  A
C687        C714   1.517       .  S
C688        C689   1.393       .  A
C688        H692   1.062       .  S
C689        C690   1.392       .  A
C689        C696   1.485       .  S
C690        H693   1.084   1_545  S
C694        C695   1.417       .  A
C694        C699   1.412       .  A
C694        C806   1.470       .  S
C695        C696   1.396       .  A
C695        H700   1.083       .  S
C696        C697   1.401   1_545  A
C697        C698   1.403   1_565  A
C697        H701   1.086       .  S
C698        C699   1.392       .  A
C698        C705   1.480       .  S
C699        H702   1.083       .  S
C703        C704   1.411       .  A
C703        C708   1.435       .  A
C703        C805   1.476       .  S
C704        C705   1.389       .  A
C704        H709   1.084   1_545  S
C705        C706   1.388       .  A
C706        C707   1.397       .  A
C706        H710   1.059       .  S
C707        C708   1.416       .  A
C707        C716   1.523       .  S
C708        H711   1.082       .  S
C712        C713   1.418       .  A
C712        C717   1.426       .  A
C712        C770   1.493       .  S
C713        C714   1.408       .  A
C713        H718   1.082       .  S
C714        C715   1.410       .  A
C715        C716   1.412       .  A
C715        H719   1.079       .  S
C716        C717   1.412       .  A
C717        H720   1.083       .  S
C721        C722   1.427       .  A
C721        C726   1.418       .  A
C721        C802   1.488       .  S
C722        C723   1.416       .  A
C722        H727   1.082       .  S
C723        C724   1.409       .  A
C723        C741   1.521       .  S
C724        C725   1.393       .  A
C724        H728   1.075       .  S
C725        C726   1.394       .  A
C725        C732   1.492       .  S
C726        H729   1.084       .  S
C730        C731   1.416       .  A
C730        C735   1.426       .  A
C730        C803   1.490       .  S
C731        C732   1.397       .  A
C731        H736   1.083       .  S
C732        C733   1.402       .  A
C733        C734   1.412       .  A
C733        H737   1.081       .  S
C734        C735   1.419       .  A
C734        C750   1.524       .  S
C735        H738   1.082       .  S
C739        C740   1.425       .  A
C739        C744   1.415       .  A
C739        C801   1.490       .  S
C740        C741   1.418       .  A
C740        H745   1.082       .  S
C741        C742   1.411       .  A
C742        C743   1.401       .  A
C742        H746   1.082       .  S
C743        C744   1.397       .  A
C743        C752   1.489       .  S
C744        H747   1.083       .  S
C748        C749   1.428       .  A
C748        C753   1.416       .  A
C748        C804   1.488       .  S
C749        C750   1.417       .  A
C749        H754   1.082       .  S
C750        C751   1.410       .  A
C751        C752   1.393       .  A
C751        H755   1.075       .  S
C752        C753   1.392       .  A
C753        H756   1.083       .  S
O757        C768   1.293       .  A
O758        C769   1.291       .  A
O759        C770   1.293       .  A
O759       Zr927   2.438       .  S
O760        C771   1.296       .  A
O760       Zr765   2.448       .  S
O761        C771   1.289       .  A
O762        C770   1.301       .  A
O763        C769   1.295       .  A
O763       Zr765   2.448       .  S
O764        C768   1.292       .  A
O764      Zr1089   2.433       .  S
Zr765       O921   2.459       .  S
Zr765      O1088   2.433   1_545  S
Zr765       O766   2.348       .  S
Zr765      O1253   2.351   1_545  S
Zr765      O1099   2.339   1_545  S
Zr765       O935   2.325       .  S
O767      Zr1251   2.355       .  S
H772        O773   0.965       .  S
O773       Zr927   2.340       .  S
H774        O775   0.965       .  S
O775      Zr1089   2.339       .  S
O776        C799   1.291       .  A
O776       Zr792   2.429       .  S
O777        C800   1.291       .  A
O777       Zr793   2.431       .  S
O778        C801   1.294       .  A
O778       Zr794   2.451       .  S
O779        C802   1.295       .  A
O779       Zr795   2.456       .  S
O780        C803   1.294       .  A
O780      Zr1119   2.452       .  S
O781        C804   1.294       .  A
O781      Zr1118   2.448       .  S
O782        C805   1.283       .  A
O782       Zr958   2.398   1_554  S
O783        C806   1.287       .  A
O783       Zr796   2.410       .  S
O784        C805   1.302       .  A
O784       Zr794   2.478       .  S
O785        C806   1.291       .  A
O785       Zr795   2.429       .  S
O786        C801   1.296       .  A
O786       Zr954   2.449       .  S
O787        C804   1.296       .  A
O787       Zr955   2.450       .  S
O788        C803   1.295       .  A
O788       Zr793   2.446       .  S
O789        C802   1.295       .  A
O789       Zr792   2.443       .  S
O790        C799   1.294       .  A
O790       Zr796   2.445       .  S
O791        C800   1.294       .  A
O791      Zr1120   2.444       .  S
Zr792       O948   2.448       .  S
Zr792       O960   2.345       .  S
Zr792       O810   2.338       .  S
Zr793       O949   2.449       .  S
Zr793       O797   2.343       .  S
Zr793       O970   2.334       .  S
Zr794      O1105   2.448   1_545  S
Zr794       O798   2.355       .  S
Zr794      O1132   2.327   1_545  S
Zr795      O1104   2.452   1_545  S
Zr795      O1121   2.345   1_545  S
Zr795       O810   2.331       .  S
Zr796       O944   2.398       .  S
Zr796      O1115   2.444   1_545  S
Zr796      O1121   2.336   1_545  S
Zr796       O960   2.346       .  S
Zr796       O810   2.335       .  S
Zr796      O1294   2.338   1_545  S
O797      Zr1119   2.345       .  S
O797      Zr1120   2.336       .  S
O798       Zr954   2.344       .  S
O798       Zr958   2.345   1_554  S
H807        O808   0.965       .  S
O808       Zr955   2.335       .  S
O808      Zr1118   2.327       .  S
O808      Zr1282   2.338   1_554  S
H809        O810   0.965       .  S
C811        C812   1.431       .  A
C811        C816   1.427       .  A
C811        C930   1.477       .  S
C812        H817   1.083       .  S
C813        C814   1.397       .  A
C813        C822   1.510       .  S
C814        C815   1.395       .  A
C814        H818   1.054       .  S
C816        H819   1.083       .  S
C820        C821   1.429       .  A
C820        C825   1.430       .  A
C820        C931   1.479       .  S
C821        H826   1.083       .  S
C822        C823   1.393       .  A
C823        C824   1.394       .  A
C823        H827   1.051       .  S
C824        C831   1.505       .  S
C825        H828   1.083       .  S
C829        C830   1.429       .  A
C829        C834   1.430       .  A
C829        C961   1.480       .  S
C830        H835   1.083       .  S
C831        C832   1.395       .  A
C832        H836   1.053       .  S
C833        C834   1.402   1_554  A
C833        C842   1.509   1_554  S
C834        H837   1.083       .  S
C838        C839   1.426       .  A
C838        C843   1.429       .  A
C838        C962   1.476       .  S
C839        C840   1.399   1_554  A
C839        H844   1.083       .  S
C841        H845   1.056       .  S
C842        C843   1.402   1_556  A
C843        H846   1.083       .  S
C847        C848   1.432       .  A
C847        C852   1.416       .  A
C847        C933   1.482       .  S
C848        C849   1.416       .  A
C848        H853   1.082       .  S
C849        C850   1.402       .  A
C849        C876   1.525       .  S
C850        C851   1.392       .  A
C850        H854   1.061       .  S
C851        C852   1.394       .  A
C851        C858   1.491       .  S
C852        H855   1.083   1_545  S
C856        C857   1.420       .  A
C856        C861   1.412       .  A
C856        C968   1.471       .  S
C857        C858   1.398       .  A
C857        H862   1.083       .  S
C858        C859   1.402   1_545  A
C859        C860   1.404   1_565  A
C859        H863   1.086       .  S
C860        C861   1.392       .  A
C860        C867   1.482       .  S
C861        H864   1.083       .  S
C865        C866   1.412       .  A
C865        C870   1.437       .  A
C865        C967   1.479       .  S
C866        C867   1.390       .  A
C866        H871   1.083   1_545  S
C867        C868   1.388       .  A
C868        C869   1.397       .  A
C868        H872   1.058       .  S
C869        C870   1.417       .  A
C869        C878   1.525       .  S
C870        H873   1.082       .  S
C874        C875   1.425       .  A
C874        C879   1.427       .  A
C874        C932   1.499       .  S
C875        C876   1.412       .  A
C875        H880   1.082       .  S
C876        C877   1.411       .  A
C877        C878   1.412       .  A
C877        H881   1.079       .  S
C878        C879   1.412       .  A
C879        H882   1.083       .  S
C883        C884   1.426       .  A
C883        C888   1.418       .  A
C883        C964   1.488       .  S
C884        C885   1.416       .  A
C884        H889   1.082       .  S
C885        C886   1.409       .  A
C885        C903   1.520       .  S
C886        C887   1.393       .  A
C886        H890   1.075       .  S
C887        C888   1.394       .  A
C887        C894   1.491       .  S
C888        H891   1.084       .  S
C892        C893   1.416       .  A
C892        C897   1.425       .  A
C892        C965   1.489       .  S
C893        C894   1.397       .  A
C893        H898   1.083       .  S
C894        C895   1.402       .  A
C895        C896   1.412       .  A
C895        H899   1.081       .  S
C896        C897   1.418       .  A
C896        C912   1.523       .  S
C897        H900   1.082       .  S
C901        C902   1.425       .  A
C901        C906   1.415       .  A
C901        C963   1.489       .  S
C902        C903   1.417       .  A
C902        H907   1.082       .  S
C903        C904   1.411       .  A
C904        C905   1.402       .  A
C904        H908   1.082       .  S
C905        C906   1.397       .  A
C905        C914   1.488       .  S
C906        H909   1.083       .  S
C910        C911   1.427       .  A
C910        C915   1.416       .  A
C910        C966   1.487       .  S
C911        C912   1.417       .  A
C911        H916   1.082       .  S
C912        C913   1.410       .  A
C913        C914   1.393       .  A
C913        H917   1.075       .  S
C914        C915   1.392       .  A
C915        H918   1.083       .  S
O919        C930   1.290       .  A
O920        C931   1.294       .  A
O921        C932   1.297       .  A
O922        C933   1.300       .  A
O922       Zr927   2.469   1_556  S
O923        C933   1.288       .  A
O924        C932   1.299       .  A
O925        C931   1.292       .  A
O925       Zr927   2.435       .  S
O926        C930   1.294       .  A
O926      Zr1251   2.446   1_556  S
Zr927      O1250   2.446   1_544  S
Zr927       O928   2.347   1_554  S
Zr927      O1091   2.355   1_545  S
Zr927      O1261   2.314   1_544  S
O929      Zr1089   2.351       .  S
H934        O935   0.964       .  S
H936        O937   0.964       .  S
O937      Zr1251   2.314   1_556  S
O938        C961   1.292       .  A
O938       Zr954   2.432   1_556  S
O939        C962   1.291       .  A
O939       Zr955   2.429       .  S
O940        C963   1.294       .  A
O940       Zr956   2.450       .  S
O941        C964   1.295       .  A
O941       Zr957   2.456       .  S
O942        C965   1.294       .  A
O942      Zr1281   2.451       .  S
O943        C966   1.294       .  A
O943      Zr1280   2.448       .  S
O944        C967   1.283       .  A
O945        C968   1.286       .  A
O945       Zr958   2.407       .  S
O946        C967   1.303       .  A
O946       Zr956   2.484       .  S
O947        C968   1.293       .  A
O947       Zr957   2.437       .  S
O948        C963   1.296       .  A
O949        C966   1.296       .  A
O950        C965   1.295       .  A
O950       Zr955   2.445   1_556  S
O951        C964   1.295       .  A
O951       Zr954   2.443   1_556  S
O952        C961   1.294       .  A
O952       Zr958   2.447       .  S
O953        C962   1.294       .  A
O953      Zr1282   2.443   1_554  S
Zr954       O972   2.337   1_554  S
Zr955       O959   2.344   1_554  S
Zr956      O1267   2.448   1_545  S
Zr956       O960   2.355       .  S
Zr956      O1294   2.329   1_545  S
Zr957      O1266   2.451   1_545  S
Zr957      O1283   2.346   1_545  S
Zr957       O972   2.334       .  S
Zr958      O1277   2.443   1_546  S
Zr958      O1283   2.337   1_545  S
Zr958       O972   2.335       .  S
Zr958      O1132   2.338   1_546  S
O959      Zr1281   2.346       .  S
O959      Zr1282   2.337       .  S
H969        O970   0.965       .  S
O970      Zr1280   2.329       .  S
O970      Zr1120   2.338       .  S
H971        O972   0.965       .  S
C973        C974   1.429       .  A
C973        C978   1.429       .  A
C973       C1092   1.479       .  S
C974       C1137   1.402       .  A
C974        H979   1.083       .  S
C975       C1136   1.401   1_554  A
C975        C976   1.394       .  A
C975        C984   1.510   1_554  S
C976        C977   1.394       .  A
C976        H980   1.052       .  S
C977       C1140   1.400   1_554  A
C977       C1164   1.505   1_554  S
C978       C1139   1.400       .  A
C978        H981   1.083       .  S
C982        C983   1.432       .  A
C982        C987   1.427       .  A
C982       C1093   1.478       .  S
C983       C1146   1.402       .  A
C983        H988   1.083       .  S
C984       C1145   1.402   1_556  A
C984        C985   1.396       .  A
C985        C986   1.395       .  A
C985        H989   1.053       .  S
C986       C1149   1.400   1_556  A
C986        C993   1.508   1_556  S
C987       C1148   1.400       .  A
C987        H990   1.083       .  S
C991        C992   1.427       .  A
C991        C996   1.430       .  A
C991       C1123   1.478       .  S
C992       C1155   1.399       .  A
C992        H997   1.083       .  S
C993       C1154   1.402   1_554  A
C993        C994   1.395       .  A
C994       C1157   1.395       .  A
C994        H998   1.054       .  S
C995       C1156   1.393       .  A
C995        C996   1.402       .  A
C995       C1004   1.509       .  S
C996        H999   1.083       .  S
C1000      C1001   1.428       .  A
C1000      C1005   1.429       .  A
C1000      C1124   1.478       .  S
C1001      C1002   1.401       .  A
C1001      H1006   1.083       .  S
C1002      C1165   1.396       .  A
C1002      C1139   1.507       .  S
C1003      C1164   1.396       .  A
C1003      C1166   1.395       .  A
C1003      H1007   1.054       .  S
C1004      C1165   1.397       .  A
C1004      C1005   1.401       .  A
C1005      H1008   1.083       .  S
C1009      C1010   1.425       .  A
C1009      C1014   1.413       .  A
C1009      C1095   1.472       .  S
C1010      C1011   1.411       .  A
C1010      H1015   1.082       .  S
C1011      C1012   1.402       .  A
C1011      C1038   1.517       .  S
C1012      C1013   1.393       .  A
C1012      H1016   1.062       .  S
C1013      C1014   1.392       .  A
C1013      C1020   1.485       .  S
C1014      H1017   1.084       .  S
C1018      C1019   1.417       .  A
C1018      C1023   1.412       .  A
C1018      C1130   1.470       .  S
C1019      C1020   1.396       .  A
C1019      H1024   1.083       .  S
C1020      C1021   1.401       .  A
C1021      C1022   1.403       .  A
C1021      H1025   1.086       .  S
C1022      C1023   1.392       .  A
C1022      C1029   1.480       .  S
C1023      H1026   1.083       .  S
C1027      C1028   1.411       .  A
C1027      C1032   1.435       .  A
C1027      C1129   1.476       .  S
C1028      C1029   1.389       .  A
C1028      H1033   1.084       .  S
C1029      C1030   1.388       .  A
C1030      C1031   1.397       .  A
C1030      H1034   1.059       .  S
C1031      C1032   1.416       .  A
C1031      C1040   1.523       .  S
C1032      H1035   1.082       .  S
C1036      C1037   1.418       .  A
C1036      C1041   1.426       .  A
C1036      C1094   1.493       .  S
C1037      C1038   1.408       .  A
C1037      H1042   1.082       .  S
C1038      C1039   1.410       .  A
C1039      C1040   1.412       .  A
C1039      H1043   1.079       .  S
C1040      C1041   1.412       .  A
C1041      H1044   1.083       .  S
C1045      C1046   1.427       .  A
C1045      C1050   1.418       .  A
C1045      C1126   1.488       .  S
C1046      C1047   1.416       .  A
C1046      H1051   1.082       .  S
C1047      C1048   1.409       .  A
C1047      C1065   1.521       .  S
C1048      C1049   1.393       .  A
C1048      H1052   1.075       .  S
C1049      C1050   1.394       .  A
C1049      C1056   1.492       .  S
C1050      H1053   1.084       .  S
C1054      C1055   1.416       .  A
C1054      C1059   1.426       .  A
C1054      C1127   1.490       .  S
C1055      C1056   1.397       .  A
C1055      H1060   1.083       .  S
C1056      C1057   1.402       .  A
C1057      C1058   1.412       .  A
C1057      H1061   1.081       .  S
C1058      C1059   1.419       .  A
C1058      C1074   1.524       .  S
C1059      H1062   1.082       .  S
C1063      C1064   1.425       .  A
C1063      C1068   1.415       .  A
C1063      C1125   1.490       .  S
C1064      C1065   1.418       .  A
C1064      H1069   1.082       .  S
C1065      C1066   1.411       .  A
C1066      C1067   1.401       .  A
C1066      H1070   1.082       .  S
C1067      C1068   1.397       .  A
C1067      C1076   1.489       .  S
C1068      H1071   1.083       .  S
C1072      C1073   1.428       .  A
C1072      C1077   1.416       .  A
C1072      C1128   1.488       .  S
C1073      C1074   1.417       .  A
C1073      H1078   1.082       .  S
C1074      C1075   1.410       .  A
C1075      C1076   1.393       .  A
C1075      H1079   1.075       .  S
C1076      C1077   1.392       .  A
C1077      H1080   1.083       .  S
O1081      C1092   1.293       .  A
O1082      C1093   1.291       .  A
O1083      C1094   1.293       .  A
O1083     Zr1251   2.438       .  S
O1084      C1095   1.296       .  A
O1084     Zr1089   2.448       .  S
O1085      C1095   1.289       .  A
O1086      C1094   1.301       .  A
O1087      C1093   1.295       .  A
O1087     Zr1089   2.448       .  S
O1088      C1092   1.292       .  A
Zr1089     O1245   2.459       .  S
Zr1089     O1090   2.348       .  S
Zr1089     O1259   2.325       .  S
H1096      O1097   0.965       .  S
O1097     Zr1251   2.340       .  S
H1098      O1099   0.965       .  S
O1100      C1123   1.291       .  A
O1100     Zr1116   2.429       .  S
O1101      C1124   1.291       .  A
O1101     Zr1117   2.431       .  S
O1102      C1125   1.294       .  A
O1102     Zr1118   2.451       .  S
O1103      C1126   1.295       .  A
O1103     Zr1119   2.456       .  S
O1104      C1127   1.294       .  A
O1105      C1128   1.294       .  A
O1106      C1129   1.283       .  A
O1106     Zr1282   2.398   1_554  S
O1107      C1130   1.287       .  A
O1107     Zr1120   2.410       .  S
O1108      C1129   1.302       .  A
O1108     Zr1118   2.478       .  S
O1109      C1130   1.291       .  A
O1109     Zr1119   2.429       .  S
O1110      C1125   1.296       .  A
O1110     Zr1278   2.449       .  S
O1111      C1128   1.296       .  A
O1111     Zr1279   2.450       .  S
O1112      C1127   1.295       .  A
O1112     Zr1117   2.446       .  S
O1113      C1126   1.295       .  A
O1113     Zr1116   2.443       .  S
O1114      C1123   1.294       .  A
O1114     Zr1120   2.445       .  S
O1115      C1124   1.294       .  A
Zr1116     O1272   2.448       .  S
Zr1116     O1284   2.345       .  S
Zr1116     O1134   2.338       .  S
Zr1117     O1273   2.449       .  S
Zr1117     O1121   2.343       .  S
Zr1117     O1294   2.334       .  S
Zr1118     O1122   2.355       .  S
Zr1119     O1134   2.331       .  S
Zr1120     O1268   2.398       .  S
Zr1120     O1284   2.346       .  S
Zr1120     O1134   2.335       .  S
O1122     Zr1278   2.344       .  S
O1122     Zr1282   2.345   1_554  S
H1131      O1132   0.965       .  S
O1132     Zr1279   2.335       .  S
H1133      O1134   0.965       .  S
C1135      C1136   1.431       .  A
C1135      C1140   1.427       .  A
C1135      C1254   1.477       .  S
C1136      H1141   1.083       .  S
C1137      C1138   1.397       .  A
C1137      C1146   1.510       .  S
C1138      C1139   1.395       .  A
C1138      H1142   1.054       .  S
C1140      H1143   1.083       .  S
C1144      C1145   1.429       .  A
C1144      C1149   1.430       .  A
C1144      C1255   1.479       .  S
C1145      H1150   1.083       .  S
C1146      C1147   1.393       .  A
C1147      C1148   1.394       .  A
C1147      H1151   1.051       .  S
C1148      C1155   1.505       .  S
C1149      H1152   1.083       .  S
C1153      C1154   1.429       .  A
C1153      C1158   1.430       .  A
C1153      C1285   1.480       .  S
C1154      H1159   1.083       .  S
C1155      C1156   1.395       .  A
C1156      H1160   1.053       .  S
C1157      C1158   1.402   1_554  A
C1157      C1166   1.509   1_554  S
C1158      H1161   1.083       .  S
C1162      C1163   1.426       .  A
C1162      C1167   1.429       .  A
C1162      C1286   1.476       .  S
C1163      C1164   1.399   1_554  A
C1163      H1168   1.083       .  S
C1165      H1169   1.056       .  S
C1166      C1167   1.402   1_556  A
C1167      H1170   1.083       .  S
C1171      C1172   1.432       .  A
C1171      C1176   1.416       .  A
C1171      C1257   1.482       .  S
C1172      C1173   1.416       .  A
C1172      H1177   1.082       .  S
C1173      C1174   1.402       .  A
C1173      C1200   1.525       .  S
C1174      C1175   1.392       .  A
C1174      H1178   1.061       .  S
C1175      C1176   1.394       .  A
C1175      C1182   1.491       .  S
C1176      H1179   1.083       .  S
C1180      C1181   1.420       .  A
C1180      C1185   1.412       .  A
C1180      C1292   1.471       .  S
C1181      C1182   1.398       .  A
C1181      H1186   1.083       .  S
C1182      C1183   1.402       .  A
C1183      C1184   1.404       .  A
C1183      H1187   1.086       .  S
C1184      C1185   1.392       .  A
C1184      C1191   1.482       .  S
C1185      H1188   1.083       .  S
C1189      C1190   1.412       .  A
C1189      C1194   1.437       .  A
C1189      C1291   1.479       .  S
C1190      C1191   1.390       .  A
C1190      H1195   1.083       .  S
C1191      C1192   1.388       .  A
C1192      C1193   1.397       .  A
C1192      H1196   1.058       .  S
C1193      C1194   1.417       .  A
C1193      C1202   1.525       .  S
C1194      H1197   1.082       .  S
C1198      C1199   1.425       .  A
C1198      C1203   1.427       .  A
C1198      C1256   1.499       .  S
C1199      C1200   1.412       .  A
C1199      H1204   1.082       .  S
C1200      C1201   1.411       .  A
C1201      C1202   1.412       .  A
C1201      H1205   1.079       .  S
C1202      C1203   1.412       .  A
C1203      H1206   1.083       .  S
C1207      C1208   1.426       .  A
C1207      C1212   1.418       .  A
C1207      C1288   1.488       .  S
C1208      C1209   1.416       .  A
C1208      H1213   1.082       .  S
C1209      C1210   1.409       .  A
C1209      C1227   1.520       .  S
C1210      C1211   1.393       .  A
C1210      H1214   1.075       .  S
C1211      C1212   1.394       .  A
C1211      C1218   1.491       .  S
C1212      H1215   1.084       .  S
C1216      C1217   1.416       .  A
C1216      C1221   1.425       .  A
C1216      C1289   1.489       .  S
C1217      C1218   1.397       .  A
C1217      H1222   1.083       .  S
C1218      C1219   1.402       .  A
C1219      C1220   1.412       .  A
C1219      H1223   1.081       .  S
C1220      C1221   1.418       .  A
C1220      C1236   1.523       .  S
C1221      H1224   1.082       .  S
C1225      C1226   1.425       .  A
C1225      C1230   1.415       .  A
C1225      C1287   1.489       .  S
C1226      C1227   1.417       .  A
C1226      H1231   1.082       .  S
C1227      C1228   1.411       .  A
C1228      C1229   1.402       .  A
C1228      H1232   1.082       .  S
C1229      C1230   1.397       .  A
C1229      C1238   1.488       .  S
C1230      H1233   1.083       .  S
C1234      C1235   1.427       .  A
C1234      C1239   1.416       .  A
C1234      C1290   1.487       .  S
C1235      C1236   1.417       .  A
C1235      H1240   1.082       .  S
C1236      C1237   1.410       .  A
C1237      C1238   1.393       .  A
C1237      H1241   1.075       .  S
C1238      C1239   1.392       .  A
C1239      H1242   1.083       .  S
O1243      C1254   1.290       .  A
O1244      C1255   1.294       .  A
O1245      C1256   1.297       .  A
O1246      C1257   1.300       .  A
O1246     Zr1251   2.469   1_556  S
O1247      C1257   1.288       .  A
O1248      C1256   1.299       .  A
O1249      C1255   1.292       .  A
O1249     Zr1251   2.435       .  S
O1250      C1254   1.294       .  A
Zr1251     O1252   2.347   1_554  S
H1258      O1259   0.964       .  S
H1260      O1261   0.964       .  S
O1262      C1285   1.292       .  A
O1262     Zr1278   2.432   1_556  S
O1263      C1286   1.291       .  A
O1263     Zr1279   2.429       .  S
O1264      C1287   1.294       .  A
O1264     Zr1280   2.450       .  S
O1265      C1288   1.295       .  A
O1265     Zr1281   2.456       .  S
O1266      C1289   1.294       .  A
O1267      C1290   1.294       .  A
O1268      C1291   1.283       .  A
O1269      C1292   1.286       .  A
O1269     Zr1282   2.407       .  S
O1270      C1291   1.303       .  A
O1270     Zr1280   2.484       .  S
O1271      C1292   1.293       .  A
O1271     Zr1281   2.437       .  S
O1272      C1287   1.296       .  A
O1273      C1290   1.296       .  A
O1274      C1289   1.295       .  A
O1274     Zr1279   2.445   1_556  S
O1275      C1288   1.295       .  A
O1275     Zr1278   2.443   1_556  S
O1276      C1285   1.294       .  A
O1276     Zr1282   2.447       .  S
O1277      C1286   1.294       .  A
Zr1278     O1296   2.337   1_554  S
Zr1279     O1283   2.344   1_554  S
Zr1280     O1284   2.355       .  S
Zr1281     O1296   2.334       .  S
Zr1282     O1296   2.335       .  S
H1293      O1294   0.965       .  S
H1295      O1296   0.965       .  S
