geometry optimzed in LAMMPS
_audit_creation_date              2020-11-30 
_audit_creation_method            'lammps2cif' 
_symmetry_space_group_name_H-M    'P1' 
_symmetry_Int_Tables_number       1 
_symmetry_cell_setting            triclinic 
loop_ 
_symmetry_equiv_pos_as_xyz 
  x,y,z 
_cell_length_a                    41.33757334276794 
_cell_length_b                    41.287480733402646 
_cell_length_c                    34.31310606829924 
_cell_angle_alpha                 89.96059078704212 
_cell_angle_beta                  89.97102335143526 
_cell_angle_gamma                 119.96750467767353 
loop_ 
_atom_site_label 
_atom_site_type_symbol 
_atom_site_fract_x 
_atom_site_fract_y 
_atom_site_fract_z 
_atom_site_charge 
C1          C  0.48715277  0.71438951  0.09563611     0.03030
C2          C  0.48894702  0.74449161  0.07516378    -0.13120
C3          C  0.49383164  0.77613906  0.09514201     0.00530
C4          C  0.49798912  0.77798543  0.13583325    -0.11640
C5          C  0.49485689  0.74734822  0.15748699     0.03020
C6          C  0.48916204  0.71548572  0.13639625    -0.11060
H7          H  0.48660035  0.74330349  0.04366326     0.08620
H8          H  0.50312260  0.80345169  0.14997275     0.06150
H9          H  0.48554256  0.69069801  0.15084848     0.05990
C10         C  0.50312751  0.72211635  0.26324632     0.03030
C11         C  0.50233904  0.72196618  0.22250200    -0.13120
C12         C  0.49711642  0.74842434  0.20147094     0.00530
C13         C  0.49290309  0.77518995  0.22324118    -0.11640
C14         C  0.49633494  0.77724523  0.26414766     0.03020
C15         C  0.50198599  0.75067696  0.28381795    -0.11060
H16         H  0.50539379  0.70045279  0.20809102     0.08620
H17         H  0.48600611  0.79423836  0.20898924     0.06150
H18         H  0.50459090  0.75141050  0.31523823     0.05990
C19         C  0.22472789  0.77971268  0.26341898     0.03030
C20         C  0.22249762  0.78182330  0.22266456    -0.13120
C21         C  0.19116962  0.75507417  0.20144237     0.00530
C22         C  0.16116405  0.72690140  0.22303640    -0.11640
C23         C  0.16398786  0.72314026  0.26333165     0.03020
C24         C  0.19605105  0.74922375  0.28322050    -0.11060
H25         H  0.24599185  0.80449483  0.20815232     0.08620
H26         H  0.13544154  0.70698067  0.20907973     0.06150
H27         H  0.19860071  0.74547277  0.31403668     0.05990
C28         C  0.21826185  0.78594539  0.09495415     0.03030
C29         C  0.18973202  0.75572410  0.07481826    -0.13120
C30         C  0.16192438  0.72481599  0.09509301     0.00530
C31         C  0.16368186  0.72434255  0.13601293    -0.11640
C32         C  0.19025131  0.75574889  0.15734786     0.03020
C33         C  0.21706342  0.78681216  0.13576476    -0.11060
H34         H  0.18982613  0.75596779  0.04325097     0.08620
H35         H  0.14460794  0.69863389  0.15057597     0.06150
H36         H  0.23789946  0.81197208  0.14980513     0.05990
C37         C  0.15592404  0.44074142  0.09412837     0.03030
C38         C  0.18325117  0.43758612  0.07334555    -0.13120
C39         C  0.21308741  0.43786811  0.09288173     0.00530
C40         C  0.21288286  0.43673758  0.13388311    -0.11640
C41         C  0.18459547  0.43808868  0.15594825     0.03020
C42         C  0.15680096  0.44128981  0.13493562    -0.11060
H43         H  0.18169463  0.43593251  0.04186412     0.08620
H44         H  0.23570163  0.43571064  0.14775319     0.06150
H45         H  0.13584009  0.44520519  0.14934836     0.05990
C46         C  0.15766949  0.44430340  0.26168695     0.03030
C47         C  0.15499035  0.43656992  0.22157255    -0.13120
C48         C  0.18528969  0.43890506  0.20015953     0.00530
C49         C  0.21632028  0.44311900  0.22179499    -0.11640
C50         C  0.21809214  0.44770419  0.26249999     0.03020
C51         C  0.18994407  0.45096027  0.28164358    -0.11060
H52         H  0.12888300  0.42916966  0.20757224     0.08620
H53         H  0.23957476  0.44293220  0.20789568     0.06150
H54         H  0.19341354  0.45902601  0.31201845     0.05990
C55         C  0.76404725  0.24228653  0.26297422     0.03030
C56         C  0.76496499  0.24172714  0.22204446    -0.13120
C57         C  0.73716082  0.21153748  0.20027387     0.00530
C58         C  0.70798877  0.18192068  0.22164025    -0.11640
C59         C  0.70750563  0.18174246  0.26249981     0.03020
C60         C  0.73616526  0.21134778  0.28293782    -0.11060
H61         H  0.78705832  0.26599004  0.20799376     0.08620
H62         H  0.68457995  0.15884545  0.20755069     0.06150
H63         H  0.73569223  0.21103182  0.31451574     0.05990
C64         C  0.76016026  0.24545149  0.09384744     0.03030
C65         C  0.76289068  0.24388645  0.13443490    -0.13120
C66         C  0.73693945  0.21222602  0.15602773     0.00530
C67         C  0.70966652  0.18151148  0.13450832    -0.11640
C68         C  0.70503101  0.18375127  0.09418246     0.03020
C69         C  0.73047464  0.21610929  0.07403037    -0.11060
H70         H  0.78557908  0.26801131  0.14805444     0.08620
H71         H  0.69101817  0.15534192  0.14844088     0.06150
H72         H  0.72726229  0.21875798  0.04306985     0.05990
C73         C  0.69789039  0.52312002  0.09431715     0.03030
C74         C  0.72932739  0.52746793  0.07404556    -0.13120
C75         C  0.76207281  0.53565855  0.09417689     0.00530
C76         C  0.76370892  0.54112062  0.13466174    -0.11640
C77         C  0.73189913  0.53436216  0.15610722     0.03020
C78         C  0.69905257  0.52535176  0.13517773    -0.11060
H79         H  0.72820857  0.52394767  0.04272019     0.08620
H80         H  0.78985459  0.54925058  0.14916327     0.06150
H81         H  0.67348003  0.51861329  0.15020826     0.05990
C82         C  0.69949703  0.52812183  0.26153469     0.03030
C83         C  0.70414747  0.53594299  0.22143189    -0.13120
C84         C  0.73193726  0.53349885  0.19993687     0.00530
C85         C  0.75803355  0.52758174  0.22080933    -0.11640
C86         C  0.75596752  0.52388031  0.26145111     0.03020
C87         C  0.72624984  0.52314318  0.28152392    -0.11060
H88         H  0.68528072  0.54312938  0.20719813     0.08620
H89         H  0.77978979  0.52506685  0.20613641     0.06150
H90         H  0.72366673  0.51784428  0.31262515     0.05990
C91         C  0.41953030  0.18067640  0.25934237     0.03030
C92         C  0.42517709  0.21251530  0.27962700    -0.13120
C93         C  0.42215338  0.24088568  0.26056038     0.00530
C94         C  0.41717741  0.23895952  0.21993196    -0.11640
C95         C  0.41144334  0.20716202  0.19868015     0.03020
C96         C  0.40956917  0.17697749  0.21991283    -0.11060
H97         H  0.43213466  0.21537724  0.31035045     0.08620
H98         H  0.41786205  0.26254297  0.20561830     0.06150
H99         H  0.40073773  0.15040763  0.20605376     0.05990
C100        C  0.41547479  0.17892732  0.09297181     0.03030
C101        C  0.41637678  0.18037773  0.13386995    -0.13120
C102        C  0.40951241  0.20587796  0.15476824     0.00530
C103        C  0.40408023  0.23181929  0.13301970    -0.11640
C104        C  0.40692581  0.23310796  0.09226610     0.03020
C105        C  0.41130300  0.20595668  0.07240623    -0.11060
H106        H  0.42412422  0.16233507  0.14891856     0.08620
H107        H  0.39937483  0.25244957  0.14712161     0.06150
H108        H  0.41223482  0.20654867  0.04084387     0.05990
C109        C  0.48287853  0.59105018  0.34509037     0.42360
N110        N  0.49275755  0.55619725  0.38384378     0.01250
C111        C  0.40874510  0.36327306  0.38232865    -0.06630
H112        H  0.31649116  0.41460948  0.39975210     0.06740
C113        C  0.38147379  0.47268034  0.02733786    -0.06980
Co114      Co  0.45326250  0.47635985  0.35809396     0.74180
N115        N  0.37525754  0.43933548  0.38824272    -0.26160
Co116      Co  0.39560394  0.41911152  0.43172620     0.74070
C117        C  0.34299807  0.45198739  0.01373192     0.42460
N118        N  0.47287462  0.53635300  0.49867351     0.00870
N119        N  0.37724035  0.44142144  0.47512007     0.00970
N120        N  0.44601160  0.40141927  0.33458911    -0.47000
H121        H  0.44418781  0.54080773  0.30628888     0.06730
N122        N  0.39707869  0.46116260  0.36019409     0.01260
N123        N  0.41708459  0.40003335  0.47508283     0.01000
C124        C  0.42694664  0.36488621  0.01303053     0.42600
N125        N  0.49488839  0.55804875  0.47057630    -0.25610
C126        C  0.52891527  0.48385094  0.33184826    -0.06530
N127        N  0.50204216  0.59138527  0.37708175    -0.46720
N128        N  0.40759410  0.36475171  0.48141856    -0.46940
C129        C  0.56772688  0.50522253  0.34511512     0.42370
N130        N  0.43743384  0.41987912  0.36026868     0.01240
N131        N  0.53500175  0.51668365  0.47011314    -0.25630
N132        N  0.46932582  0.53287676  0.35768007    -0.26130
N133        N  0.51345654  0.49504845  0.49849802     0.00880
H134        H  0.59381661  0.54078816  0.45771656     0.06770
H135        H  0.46651065  0.41437705  0.05195301     0.06810
N136        N  0.41553042  0.39818635  0.38836463    -0.26180
N137        N  0.40066770  0.46441689  0.50155395    -0.25790
N138        N  0.53280383  0.51505530  0.38383119     0.01250
C139        C  0.34273433  0.45245946  0.34578798     0.42650
C140        C  0.50208861  0.59308793  0.47664441    -0.07040
N141        N  0.44079497  0.42314661  0.50124323    -0.25790
H142        H  0.39283314  0.48991507  0.05299628     0.06790
N143        N  0.37877496  0.46958337  0.33417691    -0.47010
H144        H  0.51998706  0.61720856  0.45897252     0.06780
C145        C  0.56759725  0.50276411  0.01102383     0.42480
C146        C  0.46136312  0.55228766  0.33195342    -0.06540
Co147      Co  0.51450458  0.53716454  0.42711855     0.73820
N148        N  0.46437309  0.55489092  0.02436993    -0.46730
C149        C  0.42915569  0.36543958  0.34657997     0.42750
N150        N  0.56781960  0.52403216  0.37727292    -0.46720
Co151      Co  0.45706236  0.47982009  0.00090902     0.73890
C152        C  0.44882510  0.40338743  0.02655752    -0.07040
C153        C  0.34040438  0.43232638  0.38179635    -0.06610
N154        N  0.50952572  0.49185814  0.35755670    -0.26130
N155        N  0.34226303  0.43287114  0.48160779    -0.46900
H156        H  0.39115040  0.33944367  0.40046693     0.06750
C157        C  0.56980632  0.52312878  0.47560929    -0.07020
Cl158      Cl  0.45508663  0.47811152  0.42947882    -0.50020
C159        C  0.48154555  0.59068781  0.01199985     0.42510
H160        H  0.51726535  0.46640228  0.30639488     0.06720
N161        N  0.53209770  0.48664624  0.02419419    -0.46730
C162        C  0.04756600  0.59688967  0.01171989     0.42360
N163        N  0.00100397  0.56388656  0.47459141     0.01250
C164        C  0.88915513  0.37126495  0.47286989    -0.06630
H165        H  0.02941516  0.41860186  0.45069540     0.06740
C166        C  0.02274286  0.48282196  0.32687523    -0.06980
Co167      Co  0.95935007  0.48356358  0.99910113     0.74180
N168        N  0.99814793  0.44538872  0.46544471    -0.26160
Co169      Co  0.95712046  0.42743200  0.42302266     0.74070
C170        C  0.04081662  0.46123611  0.33752332     0.42460
N171        N  0.99771238  0.54631201  0.35921975     0.00870
N172        N  0.99693669  0.45008123  0.37860259     0.00970
N173        N  0.89055795  0.40877734  0.02178163    -0.47000
H174        H  0.03564939  0.54616419  0.04973816     0.06730
N175        N  0.99920872  0.46643318  0.49485385     0.01260
N176        N  0.91559692  0.41014660  0.38118568     0.01000
C177        C  0.86981076  0.37616274  0.34374207     0.42600
N178        N  0.99865935  0.56783618  0.38813388    -0.25610
C179        C  0.89287756  0.49239061  0.02839147    -0.06530
N180        N  0.02835196  0.59853471  0.48080068    -0.46720
N181        N  0.88922454  0.37520698  0.37474215    -0.46940
C182        C  0.87608903  0.51520653  0.01755094     0.42370
N183        N  0.91749944  0.42750121  0.49601713     0.01240
N184        N  0.91754152  0.52843212  0.39008666    -0.25630
N185        N  0.00084970  0.53977508  0.50005888    -0.26130
N186        N  0.91613039  0.50634985  0.36153707     0.00880
H187        H  0.88511361  0.55494760  0.40295191     0.06770
H188        H  0.88076595  0.42640324  0.30533125     0.06810
N189        N  0.91724507  0.40620501  0.46719637    -0.26180
N190        N  0.99611491  0.47386865  0.35361531    -0.25790
N191        N  0.91968890  0.52487050  0.47686475     0.01250
C192        C  0.04211545  0.45294948  0.00751051     0.42650
C193        C  0.02676156  0.60271145  0.38203634    -0.07040
N194        N  0.91517913  0.43388734  0.35571469    -0.25790
H195        H  0.02730390  0.50154839  0.30301290     0.06790
N196        N  0.02518173  0.47167686  0.02076163    -0.47010
H197        H  0.03393400  0.62669962  0.40030450     0.06780
C198        C  0.87166481  0.51713745  0.34887505     0.42480
C199        C  0.02922154  0.55821229  0.02501214    -0.06540
Co200      Co  0.95922149  0.54695210  0.43251123     0.73820
N201        N  0.02415766  0.56478251  0.33293247    -0.46730
C202        C  0.87119451  0.37327896  0.00857932     0.42750
N203        N  0.89431347  0.53443201  0.48521174    -0.46720
Co204      Co  0.95620695  0.49016039  0.35676445     0.73890
C205        C  0.88720379  0.41483830  0.33047093    -0.07040
C206        C  0.02445243  0.43594981  0.47045712    -0.06610
N207        N  0.91967885  0.50064667  0.50190087    -0.26130
N208        N  0.02312271  0.44167031  0.37001641    -0.46900
H209        H  0.88243198  0.34742928  0.45453084     0.06750
C210        C  0.89041045  0.53678819  0.38463820    -0.07020
Cl211      Cl  0.95802148  0.48707171  0.42792043    -0.50020
C212        C  0.04362534  0.60035031  0.34572558     0.42510
H213        H  0.88722940  0.47346532  0.05243736     0.06720
N214        N  0.88912601  0.49890670  0.33624807    -0.46730
C215        C  0.48323907  0.89275609  0.01391183     0.42360
N216        N  0.49720944  0.93957065  0.47691894     0.01250
C217        C  0.41771482  0.05235495  0.47157272    -0.06630
H218        H  0.32356853  0.91187384  0.44915693     0.06740
C219        C  0.39668689  0.91771999  0.32712836    -0.06980
Co220      Co  0.45745686  0.98046626  0.99975707     0.74180
N221        N  0.38152426  0.94235670  0.46439949    -0.26160
Co222      Co  0.40576251  0.98389503  0.42225531     0.74070
C223        C  0.35698792  0.89969651  0.33760723     0.42460
N224        N  0.48507359  0.94344717  0.36063296     0.00870
N225        N  0.38936306  0.94435069  0.37788042     0.00970
N226        N  0.45032757  0.04853844  0.02268493    -0.47000
H227        H  0.44203838  0.90290323  0.04976785     0.06730
N228        N  0.40087901  0.94088414  0.49416767     0.01260
N229        N  0.43079705  0.02556865  0.38066907     0.01000
C230        C  0.44258909  0.07164877  0.34295333     0.42600
N231        N  0.50424524  0.94163255  0.39050342    -0.25610
C232        C  0.53164053  0.04717261  0.03030106    -0.06530
N233        N  0.50513218  0.91274908  0.48388658    -0.46720
N234        N  0.42208250  0.05175842  0.37377503    -0.46940
C235        C  0.57141567  0.06518560  0.01990482     0.42370
N236        N  0.44319168  0.02227675  0.49641647     0.01240
N237        N  0.54664607  0.02300558  0.39256464    -0.25630
N238        N  0.47209095  0.93887857  0.50124666    -0.26130
N239        N  0.52693886  0.02466016  0.36319183     0.00880
H240        H  0.60509223  0.05381433  0.40672295     0.06770
H241        H  0.48363705  0.06132999  0.30633642     0.06810
N242        N  0.42378882  0.02363836  0.46654035    -0.26180
N243        N  0.41422144  0.94497061  0.35338744    -0.25790
N244        N  0.53886495  0.02087659  0.47925735     0.01250
C245        C  0.34421935  0.89830716  0.00632770     0.42650
C246        C  0.50994061  0.91267610  0.38517777    -0.07040
N247        N  0.45554570  0.02636118  0.35586861    -0.25790
H248        H  0.41071334  0.91233542  0.30367424     0.06790
N249        N  0.37965779  0.91509402  0.02000188    -0.47010
H250        H  0.52553899  0.90463947  0.40428063     0.06780
C251        C  0.58323061  0.06744618  0.35058177     0.42480
C252        C  0.46145439  0.91000693  0.02581421    -0.06540
Co253      Co  0.52243464  0.98131714  0.43494324     0.73820
N254        N  0.47773570  0.91736030  0.33414491    -0.46730
C255        C  0.43571846  0.06895297  0.00846978     0.42750
N256        N  0.57337457  0.04713166  0.48784545    -0.46720
Co257      Co  0.47060057  0.98501437  0.35746773     0.73890
C258        C  0.46486635  0.05467168  0.33080823    -0.07040
C259        C  0.34562659  0.91623451  0.46902267    -0.06610
N260        N  0.51401820  0.02023790  0.50377947    -0.26130
N261        N  0.35489398  0.91791200  0.36944570    -0.46900
H262        H  0.40177785  0.05992217  0.45242232     0.06750
C263        C  0.58250812  0.04924986  0.38749120    -0.07020
Cl264      Cl  0.46407511  0.98266963  0.42861830    -0.50020
C265        C  0.49223642  0.89675577  0.34793764     0.42510
H266        H  0.51739854  0.05215414  0.05376338     0.06720
N267        N  0.54770512  0.05070680  0.33740775    -0.46730
C268        C  0.44449900  0.28918057  0.05167793    -0.26420
C269        C  0.41062951  0.26583409  0.07078355    -0.14490
C270        C  0.38205921  0.27498492  0.07053786     0.36140
C271        C  0.38802745  0.30747524  0.05098950    -0.25860
C272        C  0.42215880  0.33106933  0.03242792    -0.15100
C273        C  0.45080294  0.32185081  0.03275504     0.37230
N274        N  0.48616560  0.34429289  0.01364736    -0.89350
H275        H  0.46655973  0.28222852  0.05203100     0.18340
H276        H  0.36617771  0.31471460  0.05058830     0.18330
N277        N  0.34728795  0.25131775  0.09008140    -0.88380
H278        H  0.50682460  0.35485282  0.03515518     0.35710
H279        H  0.48760833  0.36727247  0.99932909     0.40810
H280        H  0.33445742  0.22545230  0.07591844     0.40430
H281        H  0.32929337  0.26212732  0.08728361     0.35310
C282        C  0.44417590  0.16130238  0.03852441    -0.26420
C283        C  0.42113926  0.15056671  0.07176656    -0.14490
C284        C  0.40362341  0.11283325  0.08400981     0.36140
C285        C  0.41010532  0.08717164  0.06364661    -0.25860
C286        C  0.43259168  0.09792792  0.03026084    -0.15100
C287        C  0.44967546  0.13543283  0.01730412     0.37230
N288        N  0.47340370  0.14856294  0.48348313    -0.89350
H289        H  0.45834542  0.19017360  0.02895373     0.18340
H290        H  0.39636668  0.05827897  0.07320738     0.18330
N291        N  0.37807975  0.10002421  0.11617295    -0.88380
H292        H  0.46026219  0.15667691  0.46279213     0.35710
H293        H  0.47688867  0.12757419  0.47073788     0.40810
H294        H  0.38786336  0.08844200  0.13694968     0.40430
H295        H  0.35220630  0.07882898  0.10617251     0.35310
C296        C  0.44876723  0.30951217  0.27089096    -0.26420
C297        C  0.42448105  0.27271527  0.28316008    -0.14490
C298        C  0.40217112  0.26652777  0.31658162     0.36140
C299        C  0.40489570  0.29720656  0.33711640    -0.25860
C300        C  0.42896656  0.33413196  0.32481013    -0.15100
C301        C  0.45148128  0.34029274  0.29138998     0.37230
N302        N  0.47706856  0.37762587  0.27826623    -0.89350
H303        H  0.46610768  0.31426576  0.24543232     0.18340
H304        H  0.38735565  0.29193680  0.36242654     0.18330
N305        N  0.37614471  0.22905813  0.32905576    -0.88380
H306        H  0.49045924  0.37712946  0.25259849     0.35710
H307        H  0.49793463  0.39026812  0.29939403     0.40810
H308        H  0.35599768  0.21650930  0.30722630     0.40430
H309        H  0.36200921  0.22930494  0.35423122     0.35310
C310        C  0.40802316  0.13878878  0.31612593    -0.26420
C311        C  0.42472348  0.15172351  0.27953360    -0.14490
C312        C  0.44864393  0.13923523  0.26470461     0.36140
C313        C  0.45431344  0.11366464  0.28605280    -0.25860
C314        C  0.43730527  0.10036934  0.32244094    -0.15100
C315        C  0.41453869  0.11387675  0.33808034     0.37230
N316        N  0.39843932  0.10276779  0.37632316    -0.89350
H317        H  0.39022522  0.14870839  0.32795436     0.18340
H318        H  0.47233905  0.10426739  0.27381547     0.18330
N319        N  0.46909848  0.15320881  0.22905734    -0.88380
H320        H  0.38184675  0.11457064  0.38293965     0.35710
H321        H  0.42040215  0.11386115  0.39639099     0.40810
H322        H  0.48363630  0.18242477  0.22979946     0.40430
H323        H  0.45065577  0.14392991  0.20557511     0.35310
C324        C  0.66923580  0.53798494  0.31985467    -0.26420
C325        C  0.66572735  0.52314982  0.28228168    -0.14490
C326        C  0.62973586  0.50158612  0.26607462     0.36140
C327        C  0.59836802  0.49608765  0.28708078    -0.25860
C328        C  0.60176759  0.51083301  0.32465658    -0.15100
C329        C  0.63770406  0.53149278  0.34154015     0.37230
N330        N  0.64221575  0.54553259  0.38068366    -0.89350
H331        H  0.69673583  0.55442292  0.33257436     0.18340
H332        H  0.57121022  0.47986758  0.27368013     0.18330
N333        N  0.62464330  0.48409194  0.22877340    -0.88380
H334        H  0.67047235  0.56080100  0.38820910     0.35710
H335        H  0.63005688  0.52245785  0.39941373     0.40810
H336        H  0.60740497  0.45525303  0.23239826     0.40430
H337        H  0.61084297  0.49365270  0.21063353     0.35310
C338        C  0.81252341  0.55328520  0.30219568    -0.26420
C339        C  0.78516333  0.52108757  0.28335401    -0.14490
C340        C  0.78614670  0.48740721  0.28622173     0.36140
C341        C  0.81484654  0.48704596  0.30764044    -0.25860
C342        C  0.84204912  0.51918566  0.32684426    -0.15100
C343        C  0.84119431  0.55282996  0.32367638     0.37230
N344        N  0.86995440  0.58661906  0.34120820    -0.89350
H345        H  0.81170337  0.57904011  0.29966547     0.18340
H346        H  0.81557915  0.46122002  0.30976639     0.18330
N347        N  0.75865552  0.45320227  0.26813022    -0.88380
H348        H  0.86506956  0.60879736  0.33620014     0.35710
H349        H  0.89510266  0.59359002  0.32724151     0.40810
H350        H  0.73857283  0.45656938  0.25315353     0.40430
H351        H  0.74451186  0.43383876  0.29033632     0.35310
C352        C  0.61565929  0.48495852  0.02361838    -0.26420
C353        C  0.59951610  0.50662531  0.03362035    -0.14490
C354        C  0.61498597  0.53303231  0.06382673     0.36140
C355        C  0.64685938  0.53761605  0.08335178    -0.25860
C356        C  0.66352328  0.51624763  0.07328126    -0.15100
C357        C  0.64722783  0.48904332  0.04356575     0.37230
N358        N  0.66234174  0.46530401  0.03420677    -0.89350
H359        H  0.60339922  0.46462913  0.50035063     0.18340
H360        H  0.65921843  0.55850333  0.10608354     0.18330
N361        N  0.59844081  0.55528822  0.07425490    -0.88380
H362        H  0.64709074  0.44684897  0.01174943     0.35710
H363        H  0.65909905  0.44892835  0.05875530     0.40810
H364        H  0.60141401  0.57239734  0.05045689     0.40430
H365        H  0.61295042  0.57313104  0.09740477     0.35310
C366        C  0.80409695  0.50933693  0.09147888    -0.26420
C367        C  0.79265457  0.53290735  0.07448447    -0.14490
C368        C  0.80945397  0.55131271  0.03911714     0.36140
C369        C  0.83589362  0.54434531  0.02118654    -0.25860
C370        C  0.84744069  0.52071627  0.03825790    -0.15100
C371        C  0.83180167  0.50377308  0.07454062     0.37230
N372        N  0.84417442  0.48145376  0.09471260    -0.89350
H373        H  0.79129810  0.49509794  0.11852844     0.18340
H374        H  0.84807393  0.55832638  0.49385251     0.18330
N375        N  0.80188891  0.57839863  0.02141005    -0.88380
H376        H  0.82801447  0.46914554  0.11959998     0.35710
H377        H  0.87121192  0.49968343  0.10470684     0.40810
H378        H  0.78585331  0.58525987  0.03938867     0.40430
H379        H  0.78678964  0.56667122  0.49582673     0.35310
C380        C  0.63966456  0.11102403  0.02037744    -0.26420
C381        C  0.60497379  0.09581826  0.03971844    -0.14490
C382        C  0.60419739  0.10965320  0.07737007     0.36140
C383        C  0.63696811  0.13810334  0.09375952    -0.25860
C384        C  0.67145169  0.15323785  0.07450743    -0.15100
C385        C  0.67288055  0.13913661  0.03746464     0.37230
N386        N  0.70797591  0.15273956  0.01764869    -0.89350
H387        H  0.64107736  0.10066407  0.49179280     0.18340
H388        H  0.63521336  0.14879806  0.12205190     0.18330
N389        N  0.57107441  0.09566762  0.10040195    -0.88380
H390        H  0.70415218  0.13949843  0.49069156     0.35710
H391        H  0.72444920  0.14542249  0.03445225     0.40810
H392        H  0.55944198  0.06683783  0.10412153     0.40430
H393        H  0.55258206  0.10226230  0.08665226     0.35310
C394        C  0.78067712  0.30561898  0.05980428    -0.26420
C395        C  0.78884076  0.27807586  0.07208267    -0.14490
C396        C  0.82433387  0.28236332  0.06385074     0.36140
C397        C  0.85043192  0.31379681  0.04302260    -0.25860
C398        C  0.84239072  0.34141684  0.03085056    -0.15100
C399        C  0.80703102  0.33736514  0.03933920     0.37230
N400        N  0.79661797  0.36429691  0.02729444    -0.89350
H401        H  0.75354645  0.30240996  0.06623014     0.18340
H402        H  0.87745067  0.31678426  0.03643036     0.18330
N403        N  0.83470811  0.25527223  0.07538830    -0.88380
H404        H  0.77428440  0.35094739  0.00786459     0.35710
H405        H  0.81803619  0.38655641  0.01206013     0.40810
H406        H  0.81297599  0.23227196  0.08943075     0.40430
H407        H  0.85649765  0.26814214  0.09550935     0.35310
C408        C  0.68186754  0.13021982  0.31130116    -0.26420
C409        C  0.67552562  0.15180905  0.28416305    -0.14490
C410        C  0.63902644  0.14551925  0.27876988     0.36140
C411        C  0.60955297  0.11768742  0.30073125    -0.25860
C412        C  0.61575222  0.09615295  0.32824187    -0.15100
C413        C  0.65232555  0.10201671  0.33299253     0.37230
N414        N  0.65937876  0.07886105  0.35884769    -0.89350
H415        H  0.70996715  0.13503848  0.31504915     0.18340
H416        H  0.58160696  0.11321788  0.29676932     0.18330
N417        N  0.63218045  0.16791031  0.25153905    -0.88380
H418        H  0.68780365  0.08729462  0.35926428     0.35710
H419        H  0.64557533  0.05172724  0.34753651     0.40810
H420        H  0.64624854  0.19548119  0.26163266     0.40430
H421        H  0.60379756  0.15962876  0.25089419     0.35310
C422        C  0.82906657  0.29458078  0.27417308    -0.26420
C423        C  0.79107979  0.27642699  0.28455082    -0.14490
C424        C  0.77911897  0.29208819  0.31407748     0.36140
C425        C  0.80551339  0.32474531  0.33317837    -0.25860
C426        C  0.84312536  0.34267263  0.32244753    -0.15100
C427        C  0.85519792  0.32773791  0.29272057     0.37230
N428        N  0.89387449  0.34642363  0.28144206    -0.89350
H429        H  0.83840574  0.28275777  0.25163654     0.18340
H430        H  0.79667688  0.33662856  0.35615631     0.18330
N431        N  0.74020165  0.27540746  0.32390274    -0.88380
H432        H  0.89805214  0.33212786  0.25862850     0.35710
H433        H  0.90923135  0.34541443  0.30514251     0.40810
H434        H  0.72630197  0.27754270  0.29944616     0.40430
H435        H  0.73627042  0.29029363  0.34626654     0.35310
C436        C  0.28654813  0.47445302  0.27268332    -0.26420
C437        C  0.24983700  0.44960798  0.28480614    -0.14490
C438        C  0.24406051  0.42525022  0.31642112     0.36140
C439        C  0.27466742  0.42702336  0.33561078    -0.25860
C440        C  0.31146542  0.45198833  0.32382926    -0.15100
C441        C  0.31741342  0.47559340  0.29139358     0.37230
N442        N  0.35453361  0.50063425  0.27742542    -0.89350
H443        H  0.29112496  0.49278248  0.24812821     0.18340
H444        H  0.26923343  0.40798661  0.35962794     0.18330
N445        N  0.20752508  0.39710593  0.32868874    -0.88380
H446        H  0.35399896  0.51753003  0.25501165     0.35710
H447        H  0.36458381  0.48429491  0.26488168     0.40810
H448        H  0.19280159  0.38113334  0.30452826     0.40430
H449        H  0.19350812  0.40989154  0.34055813     0.35310
C450        C  0.11184105  0.46662941  0.26213605    -0.26420
C451        C  0.12755761  0.44793195  0.28161916    -0.14490
C452        C  0.11435071  0.43341497  0.31925481     0.36140
C453        C  0.08672469  0.43903102  0.33673005    -0.25860
C454        C  0.07096639  0.45786996  0.31720705    -0.15100
C455        C  0.08374256  0.47134216  0.27891992     0.37230
N456        N  0.06897769  0.48961385  0.25560151    -0.89350
H457        H  0.12176811  0.47822752  0.23336296     0.18340
H458        H  0.07713061  0.42809745  0.36576241     0.18330
N459        N  0.12829136  0.41231264  0.33929799    -0.88380
H460        H  0.07595158  0.51521595  0.26838179     0.35710
H461        H  0.04009524  0.47228845  0.25296330     0.40810
H462        H  0.12049320  0.38804075  0.32315863     0.40430
H463        H  0.11577536  0.40369935  0.36669555     0.35310
C464        C  0.25787557  0.41541221  0.07925312    -0.26420
C465        C  0.24542475  0.44070660  0.07082720    -0.14490
C466        C  0.26600667  0.47004624  0.04385804     0.36140
C467        C  0.29751085  0.47274457  0.02561196    -0.25860
C468        C  0.30962127  0.44736492  0.03395110    -0.15100
C469        C  0.28989249  0.41854792  0.06149324     0.37230
N470        N  0.30141558  0.39214646  0.07228090    -0.89350
H471        H  0.24276728  0.39317239  0.10018860     0.18340
H472        H  0.31300083  0.49523791  0.50502835     0.18330
N473        N  0.25705614  0.49876149  0.03591522    -0.88530
H474        H  0.30848991  0.39615766  0.10183581     0.35710
H475        H  0.32533990  0.39683125  0.05728965     0.40810
H476        H  0.25511290  0.51034769  0.06228335     0.40430
H477        H  0.23159814  0.48732957  0.52127505     0.35310
C478        C  0.10034727  0.41365340  0.05148280    -0.26420
C479        C  0.12675854  0.44440014  0.07285937    -0.14490
C480        C  0.12482296  0.47772031  0.07323973     0.36140
C481        C  0.09671948  0.47932119  0.05188625    -0.25860
C482        C  0.07086940  0.44891090  0.02947636    -0.15100
C483        C  0.07254679  0.41539171  0.02994823     0.37230
N484        N  0.04581317  0.38209154  0.51033336    -0.89350
H485        H  0.10133223  0.38789598  0.05157990     0.18340
H486        H  0.09565855  0.50503265  0.05211114     0.18330
N487        N  0.15143624  0.51084405  0.09361824    -0.88380
H488        H  0.04991346  0.38608545  0.48035118     0.35710
H489        H  0.01888704  0.37618794  0.51782562     0.40810
H490        H  0.17280652  0.50790384  0.10612991     0.40430
H491        H  0.13729236  0.51540212  0.11630823     0.35310
C492        C  0.06757916  0.64212985  0.06567456    -0.26420
C493        C  0.07709636  0.62974545  0.03191718    -0.14490
C494        C  0.11430158  0.64897987  0.01821515     0.36140
C495        C  0.14132094  0.67955920  0.03941743    -0.25860
C496        C  0.13205284  0.69219507  0.07343898    -0.15100
C497        C  0.09439476  0.67363834  0.08612785     0.37230
N498        N  0.08329644  0.68725074  0.11915347    -0.89350
H499        H  0.03884185  0.62754586  0.07563679     0.18340
H500        H  0.16996685  0.69327998  0.02927710     0.18330
N501        N  0.12578517  0.63836359  0.48319231    -0.88380
H502        H  0.05471854  0.67038969  0.12461747     0.35710
H503        H  0.08770166  0.71377433  0.11199411     0.40810
H504        H  0.10353553  0.61558874  0.46948016     0.40430
H505        H  0.14479516  0.62982094  0.49112517     0.35310
C506        C  0.31727026  0.85212378  0.06020163    -0.26420
C507        C  0.31114586  0.87019017  0.02872795    -0.14490
C508        C  0.27405268  0.86130985  0.02009064     0.36140
C509        C  0.24426395  0.83378458  0.04210544    -0.25860
C510        C  0.25056026  0.81568935  0.07325041    -0.15100
C511        C  0.28750016  0.82498014  0.08244069     0.37230
N512        N  0.29460854  0.80621356  0.11377321    -0.89350
H513        H  0.34548094  0.85874860  0.06719095     0.18340
H514        H  0.21589143  0.82679814  0.03537478     0.18330
N515        N  0.26648437  0.88061366  0.48980425    -0.88380
H516        H  0.32326520  0.81647775  0.11693260     0.35710
H517        H  0.28267370  0.77801768  0.10618746     0.40810
H518        H  0.27752790  0.90835665  0.49877356     0.40430
H519        H  0.23774714  0.86978985  0.48652086     0.35310
C520        C  0.09710520  0.68636569  0.28251415    -0.26420
C521        C  0.13324595  0.69142871  0.28452414    -0.14490
C522        C  0.13950954  0.66591663  0.30602999     0.36140
C523        C  0.10949967  0.63614833  0.32556318    -0.25860
C524        C  0.07355077  0.63143126  0.32386212    -0.15100
C525        C  0.06714362  0.65675699  0.30200070     0.37230
N526        N  0.03076458  0.65300979  0.29820836    -0.89350
H527        H  0.09216678  0.70576027  0.26578523     0.18340
H528        H  0.11413675  0.61655053  0.34228857     0.18330
N529        N  0.17616451  0.67009909  0.30752785    -0.88380
H530        H  0.03172466  0.67624229  0.31152479     0.35710
H531        H  0.01020925  0.62940068  0.31261565     0.40810
H532        H  0.18319189  0.66635064  0.27927245     0.40430
H533        H  0.17602975  0.64910676  0.32471045     0.35310
C534        C  0.28819302  0.85751724  0.33355964    -0.26420
C535        C  0.32374124  0.86856335  0.31804840    -0.14490
C536        C  0.32621476  0.84976074  0.28462998     0.36140
C537        C  0.29364636  0.81954920  0.26917646    -0.25860
C538        C  0.25819345  0.80889589  0.28441318    -0.15100
C539        C  0.25562331  0.82868636  0.31686607     0.37230
N540        N  0.22052500  0.82183381  0.33229873    -0.89350
H541        H  0.28541336  0.87193968  0.35858774     0.18340
H542        H  0.29586687  0.80488135  0.24405426     0.18330
N543        N  0.36127378  0.86176175  0.26546453    -0.88380
H544        H  0.20664622  0.79541460  0.34512295     0.35710
H545        H  0.20434445  0.82307946  0.30957479     0.40810
H546        H  0.36881146  0.88731271  0.25200985     0.40430
H547        H  0.35839537  0.84343391  0.24297267     0.35310
C548        C  0.46488101  0.65633839  0.28282641    -0.26420
C549        C  0.49961918  0.68933223  0.28431714    -0.14490
C550        C  0.52890397  0.69025490  0.30646607     0.36140
C551        C  0.52242883  0.65801815  0.32674524    -0.25860
C552        C  0.48772546  0.62482531  0.32486842    -0.15100
C553        C  0.45846973  0.62415389  0.30308523     0.37230
N554        N  0.42214561  0.59116757  0.30228849    -0.89350
H555        H  0.44239760  0.65597033  0.26620773     0.18340
H556        H  0.54503603  0.65871215  0.34340197     0.18330
N557        N  0.56540259  0.72292784  0.30872767    -0.88380
H558        H  0.40384853  0.59532010  0.28475371     0.35710
H559        H  0.41133540  0.58656870  0.33059033     0.40810
H560        H  0.56718265  0.74488083  0.29201406     0.40430
H561        H  0.58438995  0.71604745  0.29656752     0.35310
C562        C  0.51204634  0.84386456  0.27052180    -0.26420
C563        C  0.49413033  0.80738225  0.28598044    -0.14490
C564        C  0.47470099  0.80050711  0.32184963     0.36140
C565        C  0.47544262  0.83044485  0.34215549    -0.25860
C566        C  0.49318324  0.86650776  0.32637550    -0.15100
C567        C  0.51124872  0.87332859  0.29006875     0.37230
N568        N  0.52914955  0.91026782  0.27349804    -0.89350
H569        H  0.52719870  0.84958996  0.24327728     0.18340
H570        H  0.46109587  0.82545116  0.36986079     0.18330
N571        N  0.45341031  0.76314842  0.33702264    -0.88380
H572        H  0.54092854  0.91054605  0.24643746     0.35710
H573        H  0.55122754  0.92774940  0.29184293     0.40810
H574        H  0.43178799  0.74763909  0.31736984     0.40430
H575        H  0.44083068  0.76302832  0.36350883     0.35310
C576        C  0.45245856  0.62742676  0.03266552    -0.26420
C577        C  0.48326001  0.62194322  0.03411312    -0.14490
C578        C  0.51496232  0.64646352  0.05635929     0.36140
C579        C  0.51507964  0.67615132  0.07617587    -0.25860
C580        C  0.48444495  0.68196631  0.07445261    -0.15100
C581        C  0.45257659  0.65715115  0.05250972     0.37230
N582        N  0.41958532  0.66044286  0.05053514    -0.89350
H583        H  0.42805142  0.60841924  0.01588274     0.18340
H584        H  0.53950860  0.69508859  0.09297700     0.18330
N585        N  0.54737645  0.64223980  0.05964310    -0.88380
H586        H  0.41691161  0.66725743  0.02182016     0.35710
H587        H  0.42150444  0.68184404  0.06825497     0.40810
H588        H  0.54430144  0.61909100  0.04426625     0.40430
H589        H  0.55016472  0.63718643  0.08896985     0.35310
C590        C  0.51836654  0.87126988  0.05412458    -0.26420
C591        C  0.48558080  0.86242900  0.03369427    -0.14490
C592        C  0.45585555  0.82504178  0.03278408     0.36140
C593        C  0.45968080  0.79747178  0.05254932    -0.25860
C594        C  0.49216672  0.80633139  0.07358962    -0.15100
C595        C  0.52191166  0.84356795  0.07434191     0.37230
N596        N  0.55551694  0.85298707  0.09543510    -0.89350
H597        H  0.54108964  0.89997426  0.05461450     0.18340
H598        H  0.43682265  0.76883066  0.05187659     0.18330
N599        N  0.42190103  0.81377802  0.01148790    -0.88380
H600        H  0.57460006  0.88161257  0.09320795     0.35710
H601        H  0.56793000  0.83914970  0.08206710     0.40810
H602        H  0.42240131  0.83604677  0.49657968     0.40430
H603        H  0.40010365  0.80425191  0.03171085     0.35310
C604        C  0.48715522  0.71439062  0.59563548     0.03030
C605        C  0.48894896  0.74449254  0.57516337    -0.13120
C606        C  0.49383176  0.77613912  0.59514190     0.00530
C607        C  0.49798795  0.77798496  0.63583327    -0.11640
C608        C  0.49485625  0.74734791  0.65748691     0.03020
C609        C  0.48916332  0.71548620  0.63639571    -0.11060
H610        H  0.48660300  0.74330483  0.54366279     0.08620
H611        H  0.50311990  0.80345068  0.64997280     0.06150
H612        H  0.48554431  0.69069849  0.65084745     0.05990
C613        C  0.50312291  0.72211376  0.76324652     0.03030
C614        C  0.50233515  0.72196408  0.72250225    -0.13120
C615        C  0.49711442  0.74842339  0.70147109     0.00530
C616        C  0.49290204  0.77518963  0.72324149    -0.11640
C617        C  0.49633304  0.77724426  0.76414816     0.03020
C618        C  0.50198238  0.75067481  0.78381830    -0.11060
H619        H  0.50538929  0.70045028  0.70809149     0.08620
H620        H  0.48600660  0.79423915  0.70898963     0.06150
H621        H  0.50458709  0.75140799  0.81523859     0.05990
C622        C  0.22472993  0.77971554  0.76342373     0.03030
C623        C  0.22249741  0.78182453  0.72266949    -0.13120
C624        C  0.19116930  0.75507338  0.70144899     0.00530
C625        C  0.16116542  0.72690019  0.72304523    -0.11640
C626        C  0.16399122  0.72314170  0.76334095     0.03020
C627        C  0.19605506  0.74922706  0.78322726    -0.11060
H628        H  0.24599016  0.80449667  0.70815622     0.08620
H629        H  0.13544266  0.70697775  0.70909032     0.06150
H630        H  0.19860661  0.74547817  0.81404351     0.05990
C631        C  0.21825809  0.78594170  0.59495849     0.03030
C632        C  0.18972650  0.75572025  0.57482425    -0.13120
C633        C  0.16191929  0.72481290  0.59510067     0.00530
C634        C  0.16367841  0.72434087  0.63602059    -0.11640
C635        C  0.19024938  0.75574724  0.65735416     0.03020
C636        C  0.21706159  0.78680937  0.63576931    -0.11060
H637        H  0.18981921  0.75596300  0.54325696     0.08620
H638        H  0.14460479  0.69863287  0.65058480     0.06150
H639        H  0.23789925  0.81196923  0.64980826     0.05990
C640        C  0.15591578  0.44072649  0.59413812     0.03030
C641        C  0.18324444  0.43757614  0.57335278    -0.13120
C642        C  0.21308303  0.43786103  0.59288677     0.00530
C643        C  0.21288009  0.43672893  0.63388803    -0.11640
C644        C  0.18459059  0.43807363  0.65595556     0.03020
C645        C  0.15679283  0.44127109  0.63494530    -0.11060
H646        H  0.18168761  0.43592499  0.54187126     0.08620
H647        H  0.23570209  0.43570648  0.64775598     0.06150
H648        H  0.13582991  0.44518204  0.64935954     0.05990
C649        C  0.15767169  0.44429073  0.76169632     0.03030
C650        C  0.15498943  0.43655570  0.72158220    -0.13120
C651        C  0.18528681  0.43888922  0.70016686     0.00530
C652        C  0.21631776  0.44310156  0.72180035    -0.11640
C653        C  0.21809264  0.44768930  0.76250503     0.03020
C654        C  0.18994717  0.45094805  0.78165045    -0.11060
H655        H  0.12888122  0.42915587  0.70758433     0.08620
H656        H  0.23957006  0.44291131  0.70790001     0.06150
H657        H  0.19341901  0.45901561  0.81202486     0.05990
C658        C  0.76405260  0.24227885  0.76296428     0.03030
C659        C  0.76496992  0.24171713  0.72203482    -0.13120
C660        C  0.73716208  0.21152947  0.70026591     0.00530
C661        C  0.70798798  0.18191577  0.72163336    -0.11640
C662        C  0.70750703  0.18173809  0.76249295     0.03020
C663        C  0.73616936  0.21134237  0.78292955    -0.11060
H664        H  0.78706579  0.26597707  0.70798270     0.08620
H665        H  0.68457618  0.15884303  0.70754434     0.06150
H666        H  0.73569721  0.21102798  0.81450750     0.05990
C667        C  0.76015591  0.24544095  0.59383870     0.03030
C668        C  0.76288755  0.24387857  0.63442621    -0.13120
C669        C  0.73693930  0.21221737  0.65602026     0.00530
C670        C  0.70966754  0.18150094  0.63450254    -0.11640
C671        C  0.70502930  0.18373984  0.59417734     0.03020
C672        C  0.73047041  0.21609749  0.57402365    -0.11060
H673        H  0.78557429  0.26800573  0.64804456     0.08620
H674        H  0.69102210  0.15533087  0.64843622     0.06150
H675        H  0.72725634  0.21874490  0.54306323     0.05990
C676        C  0.69788324  0.52311243  0.59431684     0.03030
C677        C  0.72931951  0.52746204  0.57404236    -0.13120
C678        C  0.76206709  0.53565513  0.59417056     0.00530
C679        C  0.76370579  0.54111732  0.63465579    -0.11640
C680        C  0.73189731  0.53435880  0.65610404     0.03020
C681        C  0.69904862  0.52534585  0.63517734    -0.11060
H682        H  0.72819843  0.52394110  0.54271701     0.08620
H683        H  0.78985247  0.54924796  0.64915553     0.06150
H684        H  0.67347699  0.51860690  0.65021018     0.05990
C685        C  0.69950377  0.52812851  0.76153362     0.03030
C686        C  0.70415177  0.53594648  0.72143012    -0.13120
C687        C  0.73193914  0.53349917  0.69993390     0.00530
C688        C  0.75803613  0.52758240  0.72080550    -0.11640
C689        C  0.75597299  0.52388411  0.76144790     0.03020
C690        C  0.72625755  0.52315075  0.78152218    -0.11060
H691        H  0.68528448  0.54313227  0.70719653     0.08620
H692        H  0.77979041  0.52506513  0.70613115     0.06150
H693        H  0.72367611  0.51785411  0.81262382     0.05990
C694        C  0.41953430  0.18067769  0.75933857     0.03030
C695        C  0.42518258  0.21251713  0.77962315    -0.13120
C696        C  0.42215906  0.24088781  0.76055687     0.00530
C697        C  0.41718164  0.23896130  0.71992865    -0.11640
C698        C  0.41144561  0.20716305  0.69867700     0.03020
C699        C  0.40957204  0.17697861  0.71990937    -0.11060
H700        H  0.43214081  0.21537911  0.81034642     0.08620
H701        H  0.41786637  0.26254482  0.70561498     0.06150
H702        H  0.40073972  0.15040855  0.70605026     0.05990
C703        C  0.41546711  0.17892371  0.59296860     0.03030
C704        C  0.41637518  0.18037768  0.63386646    -0.13120
C705        C  0.40951057  0.20587727  0.65476539     0.00530
C706        C  0.40407326  0.23181570  0.63301766    -0.11640
C707        C  0.40691228  0.23310132  0.59226330     0.03020
C708        C  0.41128855  0.20594917  0.57240327    -0.11060
H709        H  0.42412736  0.16233829  0.64891442     0.08620
H710        H  0.39936930  0.25244632  0.64712097     0.06150
H711        H  0.41221538  0.20653801  0.54084076     0.05990
C712        C  0.48287507  0.59104820  0.84509083     0.42360
N713        N  0.49275737  0.55619764  0.88384434     0.01250
C714        C  0.40875538  0.36327414  0.88233048    -0.06630
H715        H  0.31649632  0.41460179  0.89975540     0.06740
C716        C  0.38147043  0.47268528  0.52733432    -0.06980
Co717      Co  0.45326743  0.47636010  0.85809556     0.74180
N718        N  0.37526291  0.43933153  0.88824567    -0.26160
Co719      Co  0.39561169  0.41911039  0.93172881     0.74070
C720        C  0.34299496  0.45199560  0.51372722     0.42460
N721        N  0.47287625  0.53635374  0.99867422     0.00870
N722        N  0.37724559  0.44141767  0.97512320     0.00970
N723        N  0.44602010  0.40142102  0.83459035    -0.47000
H724        H  0.44418659  0.54080443  0.80628964     0.06730
N725        N  0.39708303  0.46115898  0.86019667     0.01260
N726        N  0.41709532  0.40003552  0.97508473     0.01000
C727        C  0.42693115  0.36488142  0.51303006     0.42600
N728        N  0.49488868  0.55805013  0.97057657    -0.25610
C729        C  0.52892212  0.48385641  0.83184915    -0.06530
N730        N  0.50203951  0.59138490  0.87708212    -0.46720
N731        N  0.40760732  0.36475464  0.98142035    -0.46940
C732        C  0.56773386  0.50523055  0.84511511     0.42370
N733        N  0.43744245  0.41988031  0.86027080     0.01240
N734        N  0.53500766  0.51669055  0.97011311    -0.25630
N735        N  0.46932651  0.53287602  0.85768084    -0.26130
N736        N  0.51346376  0.49505472  0.99849834     0.00880
H737        H  0.59382256  0.54079808  0.95771489     0.06770
H738        H  0.46649642  0.41437085  0.55195326     0.06810
N739        N  0.41553992  0.39818708  0.88836701    -0.26180
N740        N  0.40067239  0.46441431  0.00155673    -0.25790
N741        N  0.53280929  0.51506118  0.88383131     0.01250
C742        C  0.34273744  0.45245154  0.84579067     0.42650
C743        C  0.50208576  0.59308834  0.97664411    -0.07040
N744        N  0.44080560  0.42314996  0.00124441    -0.25790
H745        H  0.39283034  0.48991944  0.55299302     0.06790
N746        N  0.37877790  0.46957749  0.83417929    -0.47010
H747        H  0.51998261  0.61720931  0.95897187     0.06780
C748        C  0.56758848  0.50275431  0.51102507     0.42480
C749        C  0.46136175  0.55228538  0.83195411    -0.06540
Co750      Co  0.51450745  0.53716825  0.92711882     0.73820
N751        N  0.46437333  0.55489153  0.52436938    -0.46730
C752        C  0.42916524  0.36544130  0.84658103     0.42750
N753        N  0.56782569  0.52404027  0.87727255    -0.46720
Co754      Co  0.45705626  0.47981806  0.50090771     0.73890
C755        C  0.44881144  0.40338234  0.52655724    -0.07040
C756        C  0.34040897  0.43231977  0.88179945    -0.06610
N757        N  0.50953166  0.49186242  0.85755753    -0.26130
N758        N  0.34226746  0.43286438  0.98161176    -0.46900
H759        H  0.39116103  0.33944442  0.90046853     0.06750
C760        C  0.56981311  0.52313796  0.97560831    -0.07020
Cl761      Cl  0.45509203  0.47811274  0.92948028    -0.50020
C762        C  0.48154893  0.59068877  0.51200011     0.42510
H763        H  0.51727253  0.46640669  0.80639641     0.06720
N764        N  0.53208876  0.48663841  0.52419457    -0.46730
C765        C  0.04756063  0.59687701  0.51173790     0.42360
N766        N  0.00099850  0.56389093  0.97458945     0.01250
C767        C  0.88914214  0.37127458  0.97288036    -0.06630
H768        H  0.02938553  0.41856866  0.95069614     0.06740
C769        C  0.02276169  0.48282347  0.82688672    -0.06980
Co770      Co  0.95932949  0.48354373  0.49911536     0.74180
N771        N  0.99813776  0.44537788  0.96543630    -0.26160
Co772      Co  0.95710143  0.42741356  0.92301842     0.74070
C773        C  0.04082004  0.46122340  0.83753129     0.42460
N774        N  0.99772476  0.54631529  0.85923055     0.00870
N775        N  0.99692559  0.45005968  0.87859529     0.00970
N776        N  0.89053987  0.40875552  0.52176839    -0.47000
H777        H  0.03561631  0.54614948  0.54976699     0.06730
N778        N  0.99922113  0.46644625  0.99483186     0.01260
N779        N  0.91558781  0.41014261  0.88117319     0.01000
C780        C  0.86981391  0.37616687  0.84371374     0.42600
N781        N  0.99865295  0.56783182  0.88814439    -0.25610
C782        C  0.89285757  0.49237944  0.52837014    -0.06530
N783        N  0.02834122  0.59854273  0.98079481    -0.46720
N784        N  0.88921013  0.37520618  0.87472714    -0.46940
C785        C  0.87608370  0.51520895  0.51753510     0.42370
N786        N  0.91751083  0.42751496  0.99602053     0.01240
N787        N  0.91753427  0.52841466  0.89008760    -0.25630
N788        N  0.00086454  0.53978448  0.00004534    -0.26130
N789        N  0.91614369  0.50635412  0.86152287     0.00880
H790        H  0.88508846  0.55490887  0.90296251     0.06770
H791        H  0.88079915  0.42640975  0.80529010     0.06810
N792        N  0.91723648  0.40621001  0.96719782    -0.26180
N793        N  0.99612458  0.47386462  0.85361561    -0.25790
N794        N  0.91968051  0.52485893  0.97686816     0.01250
C795        C  0.04211069  0.45294718  0.50753070     0.42650
C796        C  0.02675172  0.60271143  0.88205486    -0.07040
N797        N  0.91519187  0.43388767  0.85569009    -0.25790
H798        H  0.02733757  0.50156302  0.80303337     0.06790
N799        N  0.02516186  0.47165719  0.52079071    -0.47010
H800        H  0.03391359  0.62669576  0.90032514     0.06780
C801        C  0.87166910  0.51713015  0.84886448     0.42480
C802        C  0.02920007  0.55819987  0.52503454    -0.06540
Co803      Co  0.95920553  0.54693423  0.93252129     0.73820
N804        N  0.02417658  0.56479454  0.83295255    -0.46730
C805        C  0.87118994  0.37325881  0.50856096     0.42750
N806        N  0.89430362  0.53441723  0.98521690    -0.46720
Co807      Co  0.95622686  0.49016687  0.85674836     0.73890
C808        C  0.88722422  0.41484232  0.83043666    -0.07040
C809        C  0.02443705  0.43593162  0.97045011    -0.06610
N810        N  0.91969018  0.50065298  0.00191174    -0.26130
N811        N  0.02311010  0.44164488  0.87001340    -0.46900
H812        H  0.88240801  0.34743443  0.95454402     0.06750
C813        C  0.89039767  0.53676289  0.88464076    -0.07020
Cl814      Cl  0.95800306  0.48703967  0.92787789    -0.50020
C815        C  0.04363200  0.60036077  0.84575059     0.42510
H816        H  0.88719557  0.47344224  0.55240762     0.06720
N817        N  0.88914474  0.49891640  0.83622802    -0.46730
C818        C  0.48323523  0.89275325  0.51391096     0.42360
N819        N  0.49721446  0.93957428  0.97692048     0.01250
C820        C  0.41771826  0.05235742  0.97157392    -0.06630
H821        H  0.32357404  0.91187799  0.94915622     0.06740
C822        C  0.39669010  0.91772225  0.82712972    -0.06980
Co823      Co  0.45745203  0.98046266  0.49975631     0.74180
N824        N  0.38152935  0.94236053  0.96439979    -0.26160
Co825      Co  0.40576713  0.98389845  0.92225588     0.74070
C826        C  0.35699122  0.89969984  0.83760857     0.42460
N827        N  0.48507712  0.94344914  0.86063456     0.00870
N828        N  0.38936710  0.94435383  0.87788147     0.00970
N829        N  0.45032392  0.04853596  0.52268383    -0.47000
H830        H  0.44203488  0.90290042  0.54976757     0.06730
N831        N  0.40088388  0.94088781  0.99416808     0.01260
N832        N  0.43080126  0.02557156  0.88066919     0.01000
C833        C  0.44259174  0.07164994  0.84295141     0.42600
N834        N  0.50424932  0.94163505  0.89050482    -0.25610
C835        C  0.53163608  0.04716834  0.53030016    -0.06530
N836        N  0.50513660  0.91275224  0.98388788    -0.46720
N837        N  0.42208607  0.05176073  0.87377411    -0.46940
C838        C  0.57141094  0.06518027  0.51990338     0.42370
N839        N  0.44319624  0.02227999  0.99641700     0.01240
N840        N  0.54664996  0.02300825  0.89256494    -0.25630
N841        N  0.47209573  0.93888214  0.00124785    -0.26130
N842        N  0.52694222  0.02466208  0.86319220     0.00880
H843        H  0.60509647  0.05381739  0.90672183     0.06770
H844        H  0.48363897  0.06133006  0.80633451     0.06810
N845        N  0.42379334  0.02364161  0.96654090    -0.26180
N846        N  0.41422513  0.94497292  0.85338863    -0.25790
N847        N  0.53887037  0.02088103  0.97925860     0.01250
C848        C  0.34421456  0.89830321  0.50632807     0.42650
C849        C  0.50994433  0.91267827  0.88517936    -0.07040
N850        N  0.45554938  0.02636334  0.85586851    -0.25790
H851        H  0.41071613  0.91233708  0.80367561     0.06790
N852        N  0.37965322  0.91509036  0.52000169    -0.47010
H853        H  0.52554285  0.90464175  0.90428214     0.06780
C854        C  0.58323350  0.06744777  0.85058074     0.42480
C855        C  0.46145032  0.91000380  0.52581343    -0.06540
Co856      Co  0.52243942  0.98132055  0.93494434     0.73820
N857        N  0.47773855  0.91736170  0.83414698    -0.46730
C858        C  0.43571568  0.06895118  0.50846817     0.42750
N859        N  0.57337985  0.04713691  0.98784696    -0.46720
Co860      Co  0.47060419  0.98501641  0.85746859     0.73890
C861        C  0.46486909  0.05467275  0.83080690    -0.07040
C862        C  0.34563173  0.91623845  0.96902239    -0.06610
N863        N  0.51402322  0.02024192  0.00378046    -0.26130
N864        N  0.35489778  0.91791575  0.86944687    -0.46900
H865        H  0.40178076  0.05992427  0.95242386     0.06750
C866        C  0.58251187  0.04925244  0.88749057    -0.07020
Cl867      Cl  0.46407963  0.98267282  0.92861913    -0.50020
C868        C  0.49223932  0.89675719  0.84793963     0.42510
H869        H  0.51739474  0.05215027  0.55376289     0.06720
N870        N  0.54770787  0.05070807  0.83740737    -0.46730
C871        C  0.44447062  0.28915764  0.55164730    -0.26420
C872        C  0.41061244  0.26582625  0.57077967    -0.14490
C873        C  0.38205350  0.27499386  0.57056192     0.36140
C874        C  0.38802182  0.30748493  0.55101469    -0.25860
C875        C  0.42214235  0.33106352  0.53242642    -0.15100
C876        C  0.45077516  0.32182877  0.53272596     0.37230
N877        N  0.48612745  0.34425667  0.51359417    -0.89350
H878        H  0.46652367  0.28219438  0.55197978     0.18340
H879        H  0.36618075  0.31473678  0.55063465     0.18330
N880        N  0.34729344  0.25134280  0.59013208    -0.88380
H881        H  0.50680089  0.35481088  0.53508713     0.35710
H882        H  0.48757189  0.36724031  0.49928329     0.40810
H883        H  0.33444266  0.22547405  0.57597557     0.40430
H884        H  0.32930677  0.26216356  0.58735287     0.35310
C885        C  0.44416563  0.16129885  0.53851827    -0.26420
C886        C  0.42113276  0.15056377  0.57176330    -0.14490
C887        C  0.40362262  0.11283164  0.58401028     0.36140
C888        C  0.41010622  0.08717083  0.56364770    -0.25860
C889        C  0.43258865  0.09792628  0.53025902    -0.15100
C890        C  0.44966705  0.13542993  0.51729889     0.37230
N891        N  0.47341543  0.14856630  0.98349083    -0.89350
H892        H  0.45833094  0.19016919  0.52894480     0.18340
H893        H  0.39637161  0.05827912  0.57321125     0.18330
N894        N  0.37808287  0.10002289  0.61617679    -0.88380
H895        H  0.46027799  0.15668466  0.96279943     0.35710
H896        H  0.47689808  0.12757658  0.97074440     0.40810
H897        H  0.38787140  0.08844493  0.63695305     0.40430
H898        H  0.35220940  0.07882448  0.60618019     0.35310
C899        C  0.44877389  0.30951440  0.77088855    -0.26420
C900        C  0.42448733  0.27271739  0.78315709    -0.14490
C901        C  0.40217770  0.26652964  0.81657893     0.36140
C902        C  0.40490332  0.29720826  0.83711492    -0.25860
C903        C  0.42897487  0.33413381  0.82480957    -0.15100
C904        C  0.45148893  0.34029485  0.79138880     0.37230
N905        N  0.47707658  0.37762812  0.77826574    -0.89350
H906        H  0.46611390  0.31426813  0.74542951     0.18340
H907        H  0.38736355  0.29193825  0.86242534     0.18330
N908        N  0.37615057  0.22905989  0.82905218    -0.88380
H909        H  0.49046688  0.37713199  0.75259760     0.35710
H910        H  0.49794287  0.39026965  0.79939344     0.40810
H911        H  0.35600341  0.21651206  0.80722267     0.40430
H912        H  0.36201536  0.22930647  0.85422797     0.35310
C913        C  0.40802590  0.13878975  0.81612214    -0.26420
C914        C  0.42472639  0.15172410  0.77952981    -0.14490
C915        C  0.44864602  0.13923482  0.76470089     0.36140
C916        C  0.45431522  0.11366422  0.78604954    -0.25860
C917        C  0.43730736  0.10036975  0.82243800    -0.15100
C918        C  0.41454090  0.11387753  0.83807690     0.37230
N919        N  0.39844116  0.10276884  0.87631960    -0.89350
H920        H  0.39022835  0.14870994  0.82795035     0.18340
H921        H  0.47234047  0.10426646  0.77381239     0.18330
N922        N  0.46910005  0.15320737  0.72905318    -0.88380
H923        H  0.38184849  0.11457171  0.88293556     0.35710
H924        H  0.42040378  0.11386237  0.89638770     0.40810
H925        H  0.48363868  0.18242334  0.72979487     0.40430
H926        H  0.45065684  0.14392872  0.70557138     0.35310
C927        C  0.66924339  0.53799450  0.81985325    -0.26420
C928        C  0.66573440  0.52315694  0.78228136    -0.14490
C929        C  0.62974247  0.50159132  0.76607579     0.36140
C930        C  0.59837489  0.49609355  0.78708195    -0.25860
C931        C  0.60177489  0.51084148  0.82465652    -0.15100
C932        C  0.63771179  0.53150331  0.84153877     0.37230
N933        N  0.64222406  0.54554618  0.88068098    -0.89350
H934        H  0.69674370  0.55443369  0.83257197     0.18340
H935        H  0.57121687  0.47987182  0.77368225     0.18330
N936        N  0.62464918  0.48409431  0.72877610    -0.88380
H937        H  0.67048083  0.56081587  0.88820548     0.35710
H938        H  0.63006624  0.52247293  0.89941306     0.40810
H939        H  0.60741156  0.45525560  0.73240337     0.40430
H940        H  0.61084782  0.49365311  0.71063518     0.35310
C941        C  0.81252376  0.55328155  0.80220164    -0.26420
C942        C  0.78516817  0.52108837  0.78334958    -0.14490
C943        C  0.78615595  0.48740945  0.78620511     0.36140
C944        C  0.81485642  0.48704575  0.80762049    -0.25860
C945        C  0.84205442  0.51918087  0.82683420    -0.15100
C946        C  0.84119453  0.55282347  0.82367998     0.37230
N947        N  0.86994946  0.58660834  0.84122375    -0.89350
H948        H  0.81170047  0.57903542  0.79968134     0.18340
H949        H  0.81559241  0.46122107  0.80973710     0.18330
N950        N  0.75866784  0.45320786  0.76810556    -0.88380
H951        H  0.86506166  0.60878599  0.83622476     0.35710
H952        H  0.89510045  0.59358722  0.82725863     0.40810
H953        H  0.73858307  0.45657572  0.75313428     0.40430
H954        H  0.74452580  0.43383783  0.79030692     0.35310
C955        C  0.61564935  0.48494737  0.52362152    -0.26420
C956        C  0.59950628  0.50661440  0.53362299    -0.14490
C957        C  0.61497599  0.53302130  0.56382955     0.36140
C958        C  0.64684963  0.53760539  0.58335449    -0.25860
C959        C  0.66351404  0.51623757  0.57328355    -0.15100
C960        C  0.64721811  0.48903255  0.54356876     0.37230
N961        N  0.66233216  0.46529330  0.53421005    -0.89350
H962        H  0.60340911  0.46464039  0.00034740     0.18340
H963        H  0.65920888  0.55849303  0.60608590     0.18330
N964        N  0.59843077  0.55527719  0.57425761    -0.88380
H965        H  0.64708078  0.44683764  0.51175330     0.35710
H966        H  0.65909014  0.44891829  0.55875896     0.40810
H967        H  0.60140405  0.57238634  0.55045962     0.40430
H968        H  0.61294028  0.57311997  0.59740754     0.35310
C969        C  0.80409291  0.50933631  0.59146679    -0.26420
C970        C  0.79264834  0.53290549  0.57447444    -0.14490
C971        C  0.80944516  0.55131088  0.53910601     0.36140
C972        C  0.83588513  0.54434502  0.52117280    -0.25860
C973        C  0.84743438  0.52071724  0.53824247    -0.15100
C974        C  0.83179770  0.50377417  0.57452640     0.37230
N975        N  0.84417418  0.48145806  0.59469876    -0.89350
H976        H  0.79129611  0.49509727  0.61851698     0.18340
H977        H  0.84808410  0.55832696  0.99386685     0.18330
N978        N  0.80187714  0.57839532  0.52140043    -0.88380
H979        H  0.82801793  0.46915216  0.61958888     0.35710
H980        H  0.87121321  0.49968914  0.60468807     0.40810
H981        H  0.78584100  0.58525480  0.53938031     0.40430
H982        H  0.78680219  0.56667513  0.99583580     0.35310
C983        C  0.63965949  0.11101568  0.52037407    -0.26420
C984        C  0.60496969  0.09581105  0.53971671    -0.14490
C985        C  0.60419506  0.10964467  0.57736946     0.36140
C986        C  0.63696694  0.13809290  0.59375858    -0.25860
C987        C  0.67144942  0.15322651  0.57450452    -0.15100
C988        C  0.67287647  0.13912623  0.53746074     0.37230
N989        N  0.70797096  0.15272831  0.51764317    -0.89350
H990        H  0.64108398  0.10067165  0.99179712     0.18340
H991        H  0.63521398  0.14878718  0.62205187     0.18330
N992        N  0.57107284  0.09565973  0.60040247    -0.88380
H993        H  0.70415860  0.13950891  0.99069776     0.35710
H994        H  0.72444403  0.14540969  0.53444502     0.40810
H995        H  0.55943909  0.06682961  0.60412050     0.40430
H996        H  0.55258104  0.10225617  0.58665443     0.35310
C997        C  0.78067280  0.30560486  0.55978923    -0.26420
C998        C  0.78883575  0.27806218  0.57207047    -0.14490
C999        C  0.82432595  0.28234454  0.56383363     0.36140
C1000       C  0.85042221  0.31377307  0.54299812    -0.25860
C1001       C  0.84238215  0.34139325  0.53082421    -0.15100
C1002       C  0.80702512  0.33734642  0.53931735     0.37230
N1003       N  0.79661323  0.36427871  0.52727096    -0.89350
H1004       H  0.75354396  0.30239908  0.56621815     0.18340
H1005       H  0.87743972  0.31675808  0.53640458     0.18330
N1006       N  0.83469938  0.25525376  0.57537492    -0.88380
H1007       H  0.77427414  0.35092674  0.50784796     0.35710
H1008       H  0.81802853  0.38653275  0.51202787     0.40810
H1009       H  0.81296890  0.23225759  0.58942422     0.40430
H1010       H  0.85649290  0.26812671  0.59549114     0.35310
C1011       C  0.68186883  0.13021637  0.81129495    -0.26420
C1012       C  0.67552711  0.15180646  0.78415780    -0.14490
C1013       C  0.63902843  0.14551876  0.77876682     0.36140
C1014       C  0.60955529  0.11768823  0.80072962    -0.25860
C1015       C  0.61575452  0.09615313  0.82823941    -0.15100
C1016       C  0.65232716  0.10201457  0.83298768     0.37230
N1017       N  0.65937981  0.07885774  0.85884168    -0.89350
H1018       H  0.70996800  0.13503327  0.81504105     0.18340
H1019       H  0.58160964  0.11322021  0.79676948     0.18330
N1020       N  0.63218265  0.16791054  0.75153678    -0.88380
H1021       H  0.68780430  0.08728950  0.85925636     0.35710
H1022       H  0.64557423  0.05172383  0.84753082     0.40810
H1023       H  0.64625258  0.19548155  0.76162991     0.40430
H1024       H  0.60380010  0.15963050  0.75089361     0.35310
C1025       C  0.82907156  0.29457472  0.77415882    -0.26420
C1026       C  0.79108506  0.27642125  0.78453766    -0.14490
C1027       C  0.77912374  0.29208659  0.81405935     0.36140
C1028       C  0.80551733  0.32474851  0.83315344    -0.25860
C1029       C  0.84312858  0.34267679  0.82241981    -0.15100
C1030       C  0.85520202  0.32773657  0.79269937     0.37230
N1031       N  0.89387884  0.34642026  0.78142196    -0.89350
H1032       H  0.83841113  0.28274789  0.75162672     0.18340
H1033       H  0.79668075  0.33663447  0.85612854     0.18330
N1034       N  0.74020673  0.27540502  0.82388643    -0.88380
H1035       H  0.89805721  0.33211958  0.75861402     0.35710
H1036       H  0.90923535  0.34541651  0.80512566     0.40810
H1037       H  0.72630480  0.27753417  0.79942857     0.40430
H1038       H  0.73627527  0.29029453  0.84624641     0.35310
C1039       C  0.28654843  0.47443770  0.77268380    -0.26420
C1040       C  0.24983811  0.44959358  0.78480926    -0.14490
C1041       C  0.24406283  0.42523824  0.81642617     0.36140
C1042       C  0.27467047  0.42701320  0.83561553    -0.25860
C1043       C  0.31146775  0.45197769  0.82383179    -0.15100
C1044       C  0.31741445  0.47557986  0.79139381     0.37230
N1045       N  0.35453398  0.50061950  0.77742309    -0.89350
H1046       H  0.29112401  0.49276517  0.74812713     0.18340
H1047       H  0.26923757  0.40797854  0.85963446     0.18330
N1048       N  0.20752795  0.39709479  0.82869628    -0.88380
H1049       H  0.35399827  0.51751322  0.75500766     0.35710
H1050       H  0.36458362  0.48427902  0.76488098     0.40810
H1051       H  0.19280323  0.38112064  0.80453711     0.40430
H1052       H  0.19351160  0.40988110  0.84056546     0.35310
C1053       C  0.11184771  0.46662058  0.76214798    -0.26420
C1054       C  0.12756234  0.44792138  0.78163034    -0.14490
C1055       C  0.11435528  0.43340396  0.81926587     0.36140
C1056       C  0.08672878  0.43901942  0.83674098    -0.25860
C1057       C  0.07097165  0.45785914  0.81721793    -0.15100
C1058       C  0.08374960  0.47133339  0.77893145     0.37230
N1059       N  0.06898627  0.48960605  0.75561219    -0.89350
H1060       H  0.12177565  0.47821957  0.73337531     0.18340
H1061       H  0.07713332  0.42808502  0.86577283     0.18330
N1062       N  0.12829606  0.41230165  0.83930877    -0.88380
H1063       H  0.07596650  0.51521152  0.76838805     0.35710
H1064       H  0.04010308  0.47228401  0.75297672     0.40810
H1065       H  0.12049813  0.38802997  0.82316911     0.40430
H1066       H  0.11577983  0.40368802  0.86670619     0.35310
C1067       C  0.25787563  0.41541227  0.57925316    -0.26420
C1068       C  0.24542124  0.44070431  0.57083022    -0.14490
C1069       C  0.26600023  0.47004581  0.54386208     0.36140
C1070       C  0.29750494  0.47274786  0.52561347    -0.25860
C1071       C  0.30961866  0.44737025  0.53394945    -0.15100
C1072       C  0.28989312  0.41855181  0.56149100     0.37230
N1073       N  0.30141992  0.39215250  0.57227562    -0.89350
H1074       H  0.24276960  0.39317119  0.60018800     0.18340
H1075       H  0.31300906  0.49523347  0.00502635     0.18330
N1076       N  0.25704613  0.49875914  0.53592282    -0.88530
H1077       H  0.30849546  0.39616325  0.60183024     0.35710
H1078       H  0.32534430  0.39683982  0.55728275     0.40810
H1079       H  0.25510261  0.51034328  0.56229226     0.40430
H1080       H  0.23160885  0.48733315  0.02126625     0.35310
C1081       C  0.10034051  0.41364458  0.55149033    -0.26420
C1082       C  0.12675043  0.44438772  0.57287224    -0.14490
C1083       C  0.12481346  0.47770714  0.57326161     0.36140
C1084       C  0.09670980  0.47931098  0.55191188    -0.25860
C1085       C  0.07086193  0.44890495  0.52949628    -0.15100
C1086       C  0.07254027  0.41538626  0.52995892     0.37230
N1087       N  0.04581934  0.38209349  0.01032834    -0.89350
H1088       H  0.10132633  0.38788761  0.55158077     0.18340
H1089       H  0.09564768  0.50502178  0.55214312     0.18330
N1090       N  0.15142594  0.51082769  0.59364515    -0.88380
H1091       H  0.04991992  0.38608197  0.98034565     0.35710
H1092       H  0.01889327  0.37619100  0.01781923     0.40810
H1093       H  0.17279774  0.50788697  0.60615195     0.40430
H1094       H  0.13728189  0.51538042  0.61633892     0.35310
C1095       C  0.06757576  0.64211728  0.56569315    -0.26420
C1096       C  0.07709218  0.62973157  0.53193617    -0.14490
C1097       C  0.11429572  0.64897018  0.51822907     0.36140
C1098       C  0.14131466  0.67955331  0.53942732    -0.25860
C1099       C  0.13204750  0.69218997  0.57344886    -0.15100
C1100       C  0.09439044  0.67363051  0.58614128     0.37230
N1101       N  0.08329197  0.68724534  0.61916475    -0.89350
H1102       H  0.03883922  0.62753192  0.57565774     0.18340
H1103       H  0.16995962  0.69327630  0.52928386     0.18330
N1104       N  0.12579205  0.63837304  0.98317930    -0.88380
H1105       H  0.05471483  0.67038233  0.62463148     0.35710
H1106       H  0.08769333  0.71376666  0.61200111     0.40810
H1107       H  0.10354133  0.61560274  0.96946273     0.40430
H1108       H  0.14479639  0.62982368  0.99111411     0.35310
C1109       C  0.31726617  0.85211879  0.56020172    -0.26420
C1110       C  0.31114134  0.87018579  0.52872888    -0.14490
C1111       C  0.27404799  0.86130580  0.52009303     0.36140
C1112       C  0.24425955  0.83378053  0.54210849    -0.25860
C1113       C  0.25055626  0.81568491  0.57325291    -0.15100
C1114       C  0.28749643  0.82497519  0.58244146     0.37230
N1115       N  0.29460546  0.80620822  0.61377307    -0.89350
H1116       H  0.34547695  0.85874324  0.56718993     0.18340
H1117       H  0.21588697  0.82679460  0.53537895     0.18330
N1118       N  0.26648946  0.88061723  0.98980100    -0.88380
H1119       H  0.32326216  0.81647193  0.61693123     0.35710
H1120       H  0.28266990  0.77801232  0.60618713     0.40810
H1121       H  0.27753218  0.90836016  0.99877013     0.40430
H1122       H  0.23775226  0.86979289  0.98651648     0.35310
C1123       C  0.09710916  0.68636915  0.78252775    -0.26420
C1124       C  0.13325028  0.69143308  0.78453830    -0.14490
C1125       C  0.13951593  0.66592697  0.80605322     0.36140
C1126       C  0.10950794  0.63616404  0.82559445    -0.25860
C1127       C  0.07355873  0.63144620  0.82389276    -0.15100
C1128       C  0.06714924  0.65676525  0.80202167     0.37230
N1129       N  0.03076917  0.65301475  0.79822503    -0.89350
H1130       H  0.09216898  0.70575901  0.76579215     0.18340
H1131       H  0.11414628  0.61656954  0.84232454     0.18330
N1132       N  0.17617083  0.67010920  0.80755117    -0.88380
H1133       H  0.03172857  0.67625090  0.81153165     0.35710
H1134       H  0.01021534  0.62940994  0.81263934     0.40810
H1135       H  0.18319491  0.66635273  0.77929726     0.40430
H1136       H  0.17603767  0.64912151  0.82474057     0.35310
C1137       C  0.28819638  0.85752090  0.83356255    -0.26420
C1138       C  0.32374415  0.86856729  0.81804993    -0.14490
C1139       C  0.32621690  0.84976562  0.78463035     0.36140
C1140       C  0.29364825  0.81955400  0.76917752    -0.25860
C1141       C  0.25819583  0.80890000  0.78441603    -0.15100
C1142       C  0.25562634  0.82869012  0.81686961     0.37230
N1143       N  0.22052841  0.82183742  0.83230360    -0.89350
H1144       H  0.28541733  0.87194292  0.85859139     0.18340
H1145       H  0.29586817  0.80488646  0.74405471     0.18330
N1146       N  0.36127531  0.86176765  0.76546313    -0.88380
H1147       H  0.20665032  0.79541861  0.84512873     0.35710
H1148       H  0.20434689  0.82308238  0.80958030     0.40810
H1149       H  0.36881259  0.88731929  0.75201028     0.40430
H1150       H  0.35839627  0.84344092  0.74296982     0.35310
C1151       C  0.46487700  0.65633501  0.78282488    -0.26420
C1152       C  0.49961460  0.68932952  0.78431704    -0.14490
C1153       C  0.52889917  0.69025269  0.80646681     0.36140
C1154       C  0.52242422  0.65801606  0.82674589    -0.25860
C1155       C  0.48772142  0.62482268  0.82486801    -0.15100
C1156       C  0.45846602  0.62415044  0.80308347     0.37230
N1157       N  0.42214258  0.59116328  0.80228511    -0.89350
H1158       H  0.44239382  0.65596647  0.76620529     0.18340
H1159       H  0.54503125  0.65871063  0.84340348     0.18330
N1160       N  0.56539744  0.72292602  0.80872928    -0.88380
H1161       H  0.40384569  0.59531528  0.78474943     0.35710
H1162       H  0.41133113  0.58656352  0.83058644     0.40810
H1163       H  0.56717762  0.74487891  0.79201540     0.40430
H1164       H  0.58438546  0.71604611  0.79656994     0.35310
C1165       C  0.51204677  0.84386442  0.77052307    -0.26420
C1166       C  0.49412969  0.80738194  0.78598134    -0.14490
C1167       C  0.47470070  0.80050731  0.82185076     0.36140
C1168       C  0.47544372  0.83044557  0.84215710    -0.25860
C1169       C  0.49318538  0.86650864  0.82637746    -0.15100
C1170       C  0.51125047  0.87332899  0.79007049     0.37230
N1171       N  0.52915215  0.91026829  0.77349991    -0.89350
H1172       H  0.52719892  0.84958955  0.74327846     0.18340
H1173       H  0.46109712  0.82545215  0.86986246     0.18330
N1174       N  0.45340887  0.76314864  0.83702352    -0.88380
H1175       H  0.54093070  0.91054620  0.74643915     0.35710
H1176       H  0.55123052  0.92774934  0.79184467     0.40810
H1177       H  0.43178623  0.74764009  0.81737077     0.40430
H1178       H  0.44082967  0.76302892  0.86350988     0.35310
C1179       C  0.45246170  0.62742749  0.53266566    -0.26420
C1180       C  0.48326371  0.62194484  0.53411247    -0.14490
C1181       C  0.51496654  0.64646627  0.55635740     0.36140
C1182       C  0.51508355  0.67615400  0.57617391    -0.25860
C1183       C  0.48444813  0.68196788  0.57445165    -0.15100
C1184       C  0.45257951  0.65715191  0.55250955     0.37230
N1185       N  0.41958776  0.66044281  0.55053549    -0.89350
H1186       H  0.42805424  0.60841923  0.51588374     0.18340
H1187       H  0.53951274  0.69509195  0.59297434     0.18330
N1188       N  0.54738135  0.64224361  0.55964028    -0.88380
H1189       H  0.41691321  0.66725658  0.52182044     0.35710
H1190       H  0.42150684  0.68184423  0.56825489     0.40810
H1191       H  0.54430645  0.61909472  0.54426371     0.40430
H1192       H  0.55017070  0.63719099  0.58896699     0.35310
C1193       C  0.51836395  0.87126898  0.55412427    -0.26420
C1194       C  0.48557796  0.86242701  0.53369386    -0.14490
C1195       C  0.45585341  0.82503948  0.53278387     0.36140
C1196       C  0.45967961  0.79747018  0.55254931    -0.25860
C1197       C  0.49216579  0.80633084  0.57358960    -0.15100
C1198       C  0.52191001  0.84356773  0.57434182     0.37230
N1199       N  0.55551546  0.85298785  0.59543517    -0.89350
H1200       H  0.54108650  0.89997363  0.55461403     0.18340
H1201       H  0.43682203  0.76882876  0.55187670     0.18330
N1202       N  0.42189868  0.81377472  0.51148770    -0.88380
H1203       H  0.57459797  0.88161349  0.59320793     0.35710
H1204       H  0.56792919  0.83915104  0.58206735     0.40810
H1205       H  0.42240439  0.83605050  0.99658002     0.40430
H1206       H  0.40010129  0.80424817  0.53171067     0.35310
loop_ 
_geom_bond_atom_site_label_1 
_geom_bond_atom_site_label_2 
_geom_bond_distance 
_geom_bond_site_symmetry_2 
_ccdc_geom_bond_type 
C1            C2   1.397       .  A
C1            C6   1.401       .  A
C1          C580   1.478       .  S
C2            C3   1.399       .  A
C2            H7   1.084       .  S
C3            C4   1.404       .  A
C3          C594   1.480       .  S
C4            C5   1.416       .  A
C4            H8   1.079       .  S
C5            C6   1.415       .  A
C5           C12   1.511       .  S
C6            H9   1.078       .  S
C10          C11   1.398       .  A
C10          C15   1.396       .  A
C10         C549   1.476       .  S
C11          C12   1.413       .  A
C11          H16   1.078       .  S
C12          C13   1.415       .  A
C13          C14   1.409       .  A
C13          H17   1.078       .  S
C14          C15   1.403       .  A
C14         C563   1.494       .  S
C15          H18   1.082       .  S
C19          C20   1.407       .  A
C19          C24   1.400       .  A
C19         C538   1.490       .  S
C20          C21   1.414       .  A
C20          H25   1.076       .  S
C21          C22   1.413       .  A
C21          C32   1.514       .  S
C22          C23   1.403       .  A
C22          H26   1.079       .  S
C23          C24   1.399       .  A
C23         C521   1.481       .  S
C24          H27   1.081       .  S
C28          C29   1.399       .  A
C28          C33   1.402       .  A
C28         C510   1.485       .  S
C29          C30   1.402       .  A
C29          H34   1.083       .  S
C30          C31   1.407       .  A
C30         C496   1.494       .  S
C31          C32   1.415       .  A
C31          H35   1.077       .  S
C32          C33   1.414       .  A
C33          H36   1.077       .  S
C37          C38   1.396       .  A
C37          C42   1.401       .  A
C37         C479   1.480       .  S
C38          C39   1.399       .  A
C38          H43   1.082       .  S
C39          C40   1.408       .  A
C39         C465   1.489       .  S
C40          C41   1.417       .  A
C40          H44   1.076       .  S
C41          C42   1.418       .  A
C41          C48   1.517       .  S
C42          H45   1.078       .  S
C46          C47   1.405       .  A
C46          C51   1.400       .  A
C46         C451   1.492       .  S
C47          C48   1.413       .  A
C47          H52   1.077       .  S
C48          C49   1.416       .  A
C49          C50   1.407       .  A
C49          H53   1.076       .  S
C50          C51   1.400       .  A
C50         C437   1.487       .  S
C51          H54   1.082       .  S
C55          C56   1.405       .  A
C55          C60   1.399       .  A
C55         C423   1.487       .  S
C56          C57   1.415       .  A
C56          H61   1.075       .  S
C57          C58   1.418       .  A
C57          C66   1.519       .  S
C58          C59   1.402       .  A
C58          H62   1.076       .  S
C59          C60   1.395       .  A
C59         C409   1.481       .  S
C60          H63   1.084       .  S
C64          C65   1.401       .  A
C64          C69   1.397       .  A
C64         C395   1.476       .  S
C65          C66   1.416       .  A
C65          H70   1.076       .  S
C66          C67   1.414       .  A
C67          C68   1.406       .  A
C67          H71   1.076       .  S
C68          C69   1.401       .  A
C68         C384   1.492       .  S
C69          H72   1.083       .  S
C73          C74   1.404       .  A
C73          C78   1.404       .  A
C73         C356   1.489       .  S
C74          C75   1.403       .  A
C74          H79   1.083       .  S
C75          C76   1.404       .  A
C75         C367   1.487       .  S
C76          C77   1.407       .  A
C76          H80   1.080       .  S
C77          C78   1.412       .  A
C77          C84   1.504       .  S
C78          H81   1.080       .  S
C82          C83   1.404       .  A
C82          C87   1.401       .  A
C82         C325   1.487       .  S
C83          C84   1.410       .  A
C83          H88   1.080       .  S
C84          C85   1.414       .  A
C85          C86   1.401       .  A
C85          H89   1.080       .  S
C86          C87   1.395       .  A
C86         C339   1.475       .  S
C87          H90   1.084       .  S
C91          C92   1.401       .  A
C91          C96   1.400       .  A
C91         C311   1.487       .  S
C92          C93   1.400       .  A
C92          H97   1.084       .  S
C93          C94   1.406       .  A
C93         C297   1.488       .  S
C94          C95   1.415       .  A
C94          H98   1.078       .  S
C95          C96   1.411       .  A
C95         C102   1.508       .  S
C96          H99   1.079       .  S
C100        C101   1.404       .  A
C100        C105   1.402       .  A
C100        C283   1.493       .  S
C101        C102   1.415       .  A
C101        H106   1.078       .  S
C102        C103   1.412       .  A
C103        C104   1.402       .  A
C103        H107   1.079       .  S
C104        C105   1.399       .  A
C104        C269   1.478       .  S
C105        H108   1.083       .  S
C109        C146   1.461       .  S
C109        C552   1.478       .  S
C109        N127   1.350       .  A
N110        N127   1.324       .  A
N110        N132   1.320       .  A
N110       Co147   2.082       .  S
C111        C149   1.466       .  S
C111        H156   1.081       .  S
C111        N136   1.340       .  A
H112        C153   1.081       .  S
C113        C117   1.456       .  S
C113        H142   1.081       .  S
C113        N740   1.341       .  A
Co114       N132   2.083       .  S
Co114       N122   2.083       .  S
Co114       N154   2.081       .  S
Co114       N130   2.085       .  S
Co114      Cl158   2.451       .  S
N115        C153   1.339       .  A
N115        N122   1.318       .  A
N115       Co116   2.081       .  S
Co116       N119   2.084       .  S
Co116       N136   2.086       .  S
Co116       N123   2.079       .  S
Co116      Cl158   2.450       .  S
C117        C468   1.469       .  S
C117        N758   1.348   1_554  A
N118        N125   1.320       .  A
N118        N751   1.325       .  A
N118       Co754   2.087       .  S
N119        N137   1.321       .  A
N119        N155   1.325       .  A
N120        C149   1.351       .  A
N120        N130   1.324       .  A
H121        C146   1.081       .  S
N122        N143   1.324       .  A
N123        N141   1.321       .  A
N123        N128   1.324       .  A
C124        C152   1.458       .  S
C124        C272   1.468       .  S
C124        N731   1.346   1_554  A
N125        C140   1.340       .  A
N125       Co147   2.079       .  S
C126        C129   1.465       .  S
C126        H160   1.081       .  S
C126        N154   1.340       .  A
N128        C727   1.346       .  A
C129        C328   1.483       .  S
C129        N150   1.349       .  A
N130        N136   1.319       .  A
N131        C157   1.339       .  A
N131        N133   1.320       .  A
N131       Co147   2.080       .  S
N132        C146   1.339       .  A
N133        N764   1.326       .  A
N133       Co754   2.091       .  S
H134        C157   1.081       .  S
H135        C152   1.081       .  S
N137        C716   1.341       .  A
N137       Co754   2.087       .  S
N138        N150   1.322       .  A
N138        N154   1.318       .  A
N138       Co147   2.074       .  S
C139        C153   1.465       .  S
C139        C440   1.488       .  S
C139        N143   1.351       .  A
C140        C762   1.455       .  S
C140        H144   1.081       .  S
N141        C755   1.342       .  A
N141       Co754   2.087       .  S
C145        C353   1.469       .  S
C145        C760   1.454   1_554  S
C145        N161   1.351       .  A
Co147      Cl158   2.450       .  S
N148        C159   1.349       .  A
N148        N721   1.325   1_554  A
C149        C300   1.490       .  S
Co151       N721   2.087   1_554  S
Co151       N736   2.091   1_554  S
Co151       N740   2.087       .  S
Co151       N744   2.087       .  S
Co151      Cl761   2.452   1_554  S
C152        N744   1.341       .  A
N155        C720   1.348       .  A
C157        C748   1.454       .  S
Cl158      Co754   2.452       .  S
C159        C577   1.468       .  S
C159        C743   1.455   1_554  S
N161        N736   1.326   1_554  A
C162        C199   1.457       .  S
C162        C493   1.469       .  S
C162        N783   1.348   1_554  A
N163        N180   1.325       .  A
N163        N185   1.322       .  A
N163       Co200   2.087   1_455  S
C164        C805   1.455       .  S
C164        H209   1.081       .  S
C164        N189   1.339       .  A
H165        C206   1.078       .  S
C166        C170   1.467       .  S
C166        H195   1.076       .  S
C166        N190   1.335   1_455  A
Co167       N788   2.087   1_656  S
Co167       N778   2.098       .  S
Co167       N810   2.086   1_556  S
Co167       N786   2.088       .  S
Co167      Cl814   2.450       .  S
N168        C206   1.337   1_655  A
N168        N175   1.318       .  A
N168       Co169   2.072       .  S
Co169       N172   2.089       .  S
Co169       N189   2.082       .  S
Co169       N176   2.073       .  S
Co169      Cl211   2.450       .  S
C170        C454   1.494       .  S
C170        N208   1.356       .  A
N171        N178   1.320       .  A
N171        N201   1.325   1_655  A
N171       Co204   2.086       .  S
N172        N190   1.316       .  A
N172        N208   1.325   1_655  A
N173        C202   1.350       .  A
N173        N786   1.326   1_554  A
H174        C199   1.081       .  S
N175        N799   1.327   1_655  A
N175       Co770   2.098       .  S
N176        N194   1.319       .  A
N176        N181   1.322       .  A
C177        C205   1.458       .  S
C177        C426   1.463       .  S
C177        N181   1.345       .  A
N178        C193   1.340   1_655  A
N178       Co200   2.076       .  S
C179        C182   1.470       .  S
C179        H213   1.078       .  S
C179        N810   1.338       .  A
N180        C765   1.348       .  A
C182        C370   1.492       .  S
C182        N806   1.352   1_554  A
N183        N189   1.320       .  A
N183        N776   1.326       .  A
N183       Co770   2.088       .  S
N184        C210   1.341       .  A
N184        N186   1.320       .  A
N184       Co200   2.088       .  S
N185        C802   1.341       .  A
N185       Co770   2.087   1_455  S
N186        N214   1.324       .  A
N186       Co204   2.079       .  S
H187        C210   1.081       .  S
H188        C205   1.081       .  S
N190       Co204   2.072       .  S
N191        N203   1.324       .  A
N191        N207   1.318       .  A
N191       Co200   2.080       .  S
C192        C482   1.486       .  S
C192        C809   1.461   1_554  S
C192        N196   1.355       .  A
C193        C212   1.454       .  S
C193        H197   1.081       .  S
N194        C205   1.341       .  A
N194       Co204   2.083       .  S
N196        N778   1.327   1_454  A
C198        C210   1.462       .  S
C198        C342   1.477       .  S
C198        N214   1.348       .  A
C199        N788   1.341       .  A
Co200      Cl211   2.453       .  S
N201        C212   1.348       .  A
C202        C398   1.471       .  S
C202        C767   1.455   1_554  S
N203        C785   1.352       .  A
Co204      Cl211   2.448       .  S
C206        C795   1.461       .  S
N207        C782   1.338       .  A
N207       Co770   2.086       .  S
Cl211      Co770   2.449       .  S
C212        C524   1.467       .  S
C215        C252   1.458       .  S
C215        C591   1.469       .  S
C215        N836   1.347   1_554  A
N216        N233   1.324       .  A
N216        N238   1.321       .  A
N216       Co253   2.081       .  S
C217        C858   1.456       .  S
C217        H262   1.081       .  S
C217        N242   1.340       .  A
H218        C259   1.079       .  S
C219        C223   1.468       .  S
C219        H248   1.078       .  S
C219        N243   1.338       .  A
Co220       N841   2.087   1_556  S
Co220       N831   2.088       .  S
Co220       N863   2.085   1_566  S
Co220       N839   2.087   1_565  S
Co220      Cl867   2.453       .  S
N221        C259   1.338       .  A
N221        N228   1.318       .  A
N221       Co222   2.077       .  S
Co222       N225   2.084       .  S
Co222       N242   2.083   1_565  S
Co222       N229   2.070   1_565  S
Co222      Cl264   2.446       .  S
C223        C535   1.493       .  S
C223        N261   1.354       .  A
N224        N231   1.321       .  A
N224        N254   1.324       .  A
N224       Co257   2.083       .  S
N225        N243   1.317       .  A
N225        N261   1.324       .  A
N226        C255   1.350       .  A
N226        N839   1.326   1_554  A
H227        C252   1.081       .  S
N228        N852   1.324       .  A
N228       Co823   2.088       .  S
N229        N247   1.318       .  A
N229        N234   1.321       .  A
C230        C258   1.469       .  S
C230        C314   1.486       .  S
C230        N234   1.347       .  A
N231        C246   1.341       .  A
N231       Co253   2.085       .  S
C232        C235   1.470       .  S
C232        H266   1.076       .  S
C232        N863   1.337       .  A
N233        C818   1.347       .  A
C235        C381   1.495       .  S
C235        N859   1.354   1_554  A
N236        N242   1.320       .  A
N236        N829   1.326       .  A
N236       Co823   2.087   1_545  S
N237        C263   1.340       .  A
N237        N239   1.319       .  A
N237       Co253   2.086   1_545  S
N238        C855   1.342       .  A
N238       Co823   2.087       .  S
N239        N267   1.324       .  A
N239       Co257   2.082   1_545  S
H240        C263   1.081       .  S
H241        C258   1.081       .  S
N243       Co257   2.082       .  S
N244        N256   1.324       .  A
N244        N260   1.317       .  A
N244       Co253   2.083   1_545  S
C245        C507   1.490       .  S
C245        C862   1.465   1_554  S
C245        N249   1.354       .  A
C246        C265   1.457       .  S
C246        H250   1.081       .  S
N247        C258   1.343       .  A
N247       Co257   2.089   1_545  S
N249        N831   1.324   1_554  A
C251        C263   1.465       .  S
C251        C412   1.485       .  S
C251        N267   1.351       .  A
C252        N841   1.342       .  A
Co253      Cl264   2.451       .  S
N254        C265   1.348       .  A
C255        C286   1.471       .  S
C255        C820   1.456   1_554  S
N256        C838   1.354       .  A
Co257      Cl264   2.453       .  S
C259        C848   1.465       .  S
N260        C835   1.337       .  A
N260       Co823   2.085   1_545  S
Cl264      Co823   2.453       .  S
C265        C566   1.469       .  S
C268        C269   1.403       .  A
C268        C273   1.399       .  A
C268        H275   1.084       .  S
C269        C270   1.408       .  A
C270        C271   1.406       .  A
C270        N277   1.437       .  S
C271        C272   1.404       .  A
C271        H276   1.084       .  S
C272        C273   1.413       .  A
C273        N274   1.439       .  S
N274        H278   1.046       .  S
N274        H279   1.043   1_554  S
N277        H280   1.045       .  S
N277        H281   1.046       .  S
C282        C283   1.407       .  A
C282        C287   1.402       .  A
C282        H289   1.083       .  S
C283        C284   1.414       .  A
C284        C285   1.402       .  A
C284        N291   1.433       .  S
C285        C286   1.400       .  A
C285        H290   1.084       .  S
C286        C287   1.414       .  A
C287        N891   1.439   1_554  S
N288        C890   1.439       .  S
N288        H292   1.046       .  S
N288        H293   1.043       .  S
N291        H294   1.046       .  S
N291        H295   1.046       .  S
C296        C297   1.403       .  A
C296        C301   1.408       .  A
C296        H303   1.084       .  S
C297        C298   1.412       .  A
C298        C299   1.404       .  A
C298        N305   1.439       .  S
C299        C300   1.406       .  A
C299        H304   1.081       .  S
C300        C301   1.417       .  A
C301        N302   1.438       .  S
N302        H306   1.046       .  S
N302        H307   1.046       .  S
N305        H308   1.046       .  S
N305        H309   1.046       .  S
C310        C311   1.403       .  A
C310        C315   1.405       .  A
C310        H317   1.084       .  S
C311        C312   1.418       .  A
C312        C313   1.397       .  A
C312        N319   1.433       .  S
C313        C314   1.403       .  A
C313        H318   1.082       .  S
C314        C315   1.417       .  A
C315        N316   1.438       .  S
N316        H320   1.046       .  S
N316        H321   1.046       .  S
N319        H322   1.045       .  S
N319        H323   1.042       .  S
C324        C325   1.404       .  A
C324        C329   1.405       .  A
C324        H331   1.083       .  S
C325        C326   1.412       .  A
C326        C327   1.399       .  A
C326        N333   1.433       .  S
C327        C328   1.403       .  A
C327        H332   1.082       .  S
C328        C329   1.416       .  A
C329        N330   1.438       .  S
N330        H334   1.046       .  S
N330        H335   1.046       .  S
N333        H336   1.045       .  S
N333        H337   1.046       .  S
C338        C339   1.402       .  A
C338        C343   1.404       .  A
C338        H345   1.084       .  S
C339        C340   1.415       .  A
C340        C341   1.402       .  A
C340        N347   1.439       .  S
C341        C342   1.404       .  A
C341        H346   1.084       .  S
C342        C343   1.411       .  A
C343        N344   1.438       .  S
N344        H348   1.046       .  S
N344        H349   1.046       .  S
N347        H350   1.043       .  S
N347        H351   1.046       .  S
C352        C353   1.400       .  A
C352        C357   1.407       .  A
C352        H962   1.084       .  S
C353        C354   1.406       .  A
C354        C355   1.404       .  A
C354        N361   1.438       .  S
C355        C356   1.407       .  A
C355        H360   1.084       .  S
C356        C357   1.415       .  A
C357        N358   1.437       .  S
N358        H362   1.046       .  S
N358        H363   1.046       .  S
H359        C955   1.084       .  S
N361        H364   1.046       .  S
N361        H365   1.046       .  S
C366        C367   1.404       .  A
C366        C371   1.402       .  A
C366        H373   1.084       .  S
C367        C368   1.415       .  A
C368        C369   1.403       .  A
C368        N375   1.437       .  S
C369        C370   1.410       .  A
C369        H977   1.084   1_554  S
C370        C371   1.415       .  A
C371        N372   1.435       .  S
N372        H376   1.046       .  S
N372        H377   1.046       .  S
H374        C972   1.084       .  S
N375        H378   1.043       .  S
N375        H982   1.045   1_554  S
H379        N978   1.045       .  S
C380        C381   1.411       .  A
C380        C385   1.409       .  A
C380        H990   1.083   1_554  S
C381        C382   1.420       .  A
C382        C383   1.394       .  A
C382        N389   1.429       .  S
C383        C384   1.403       .  A
C383        H388   1.084       .  S
C384        C385   1.412       .  A
C385        N386   1.438       .  S
N386        H391   1.046       .  S
N386        H993   1.046   1_554  S
H387        C983   1.083       .  S
N389        H392   1.045       .  S
N389        H393   1.044       .  S
H390        N989   1.046       .  S
C394        C395   1.403       .  A
C394        C399   1.403       .  A
C394        H401   1.084       .  S
C395        C396   1.416       .  A
C396        C397   1.399       .  A
C396        N403   1.439       .  S
C397        C398   1.401       .  A
C397        H402   1.084       .  S
C398        C399   1.416       .  A
C399        N400   1.439       .  S
N400        H404   1.046       .  S
N400        H405   1.043       .  S
N403        H406   1.043       .  S
N403        H407   1.046       .  S
C408        C409   1.401       .  A
C408        C413   1.407       .  A
C408        H415   1.084       .  S
C409        C410   1.410       .  A
C410        C411   1.404       .  A
C410        N417   1.438       .  S
C411        C412   1.405       .  A
C411        H416   1.084       .  S
C412        C413   1.416       .  A
C413        N414   1.437       .  S
N414        H418   1.046       .  S
N414        H419   1.046       .  S
N417        H420   1.046       .  S
N417        H421   1.046       .  S
C422        C423   1.406       .  A
C422        C427   1.404       .  A
C422        H429   1.083       .  S
C423        C424   1.417       .  A
C424        C425   1.404       .  A
C424        N431   1.438       .  S
C425        C426   1.396       .  A
C425        H430   1.084       .  S
C426        C427   1.406       .  A
C427        N428   1.438       .  S
N428        H432   1.046       .  S
N428        H433   1.045       .  S
N431        H434   1.046       .  S
N431        H435   1.046       .  S
C436        C437   1.404       .  A
C436        C441   1.408       .  A
C436        H443   1.084       .  S
C437        C438   1.415       .  A
C438        C439   1.396       .  A
C438        N445   1.433       .  S
C439        C440   1.404       .  A
C439        H444   1.082       .  S
C440        C441   1.417       .  A
C441        N442   1.438       .  S
N442        H446   1.046       .  S
N442        H447   1.046       .  S
N445        H448   1.045       .  S
N445        H449   1.042       .  S
C450        C451   1.402       .  A
C450        C455   1.394       .  A
C450        H457   1.084       .  S
C451        C452   1.413       .  A
C452        C453   1.408       .  A
C452        N459   1.437       .  S
C453        C454   1.409       .  A
C453        H458   1.083       .  S
C454        C455   1.421       .  A
C455        N456   1.429       .  S
N456        H460   1.044       .  S
N456        H461   1.045       .  S
N459        H462   1.046       .  S
N459        H463   1.046       .  S
C464        C465   1.406       .  A
C464        C469   1.403       .  A
C464        H471   1.084       .  S
C465        C466   1.420       .  A
C466        C467   1.398       .  A
C466        N473   1.433       .  S
C467        C468   1.398       .  A
C467       H1075   1.084       .  S
C468        C469   1.415       .  A
C469        N470   1.439       .  S
N470        H474   1.046       .  S
N470        H475   1.043       .  S
H472       C1070   1.084       .  S
N473        H476   1.045       .  S
N473       H1080   1.043       .  S
H477       N1076   1.043       .  S
C478        C479   1.400       .  A
C478        C483   1.398       .  A
C478        H485   1.084       .  S
C479        C480   1.417       .  A
C480        C481   1.403       .  A
C480        N487   1.438       .  S
C481        C482   1.404       .  A
C481        H486   1.084       .  S
C482        C483   1.420       .  A
C483       N1087   1.431       .  S
N484       C1086   1.431       .  S
N484        H488   1.042       .  S
N484        H489   1.045       .  S
N487        H490   1.043       .  S
N487        H491   1.046       .  S
C492        C493   1.400       .  A
C492        C497   1.405       .  A
C492        H499   1.084       .  S
C493        C494   1.413       .  A
C494        C495   1.401       .  A
C494       N1104   1.439   1_554  S
C495        C496   1.408       .  A
C495        H500   1.083       .  S
C496        C497   1.417       .  A
C497        N498   1.438       .  S
N498        H502   1.046       .  S
N498        H503   1.046       .  S
N501       C1097   1.439       .  S
N501        H504   1.043       .  S
N501        H505   1.045       .  S
C506        C507   1.405       .  A
C506        C511   1.405       .  A
C506        H513   1.084       .  S
C507        C508   1.419       .  A
C508        C509   1.407       .  A
C508       N1118   1.436   1_554  S
C509        C510   1.401       .  A
C509        H514   1.084       .  S
C510        C511   1.412       .  A
C511        N512   1.438       .  S
N512        H516   1.046       .  S
N512        H517   1.046       .  S
N515       C1111   1.436       .  S
N515        H518   1.046       .  S
N515        H519   1.046       .  S
C520        C521   1.403       .  A
C520        C525   1.400       .  A
C520        H527   1.084       .  S
C521        C522   1.412       .  A
C522        C523   1.405       .  A
C522        N529   1.438       .  S
C523        C524   1.400       .  A
C523        H528   1.084       .  S
C524        C525   1.415       .  A
C525        N526   1.439       .  S
N526        H530   1.045       .  S
N526        H531   1.043       .  S
N529        H532   1.046       .  S
N529        H533   1.046       .  S
C534        C535   1.407       .  A
C534        C539   1.399       .  A
C534        H541   1.084       .  S
C535        C536   1.417       .  A
C536        C537   1.405       .  A
C536        N543   1.435       .  S
C537        C538   1.403       .  A
C537        H542   1.084       .  S
C538        C539   1.417       .  A
C539        N540   1.433       .  S
N540        H544   1.042       .  S
N540        H545   1.045       .  S
N543        H546   1.046       .  S
N543        H547   1.046       .  S
C548        C549   1.402       .  A
C548        C553   1.402       .  A
C548        H555   1.084       .  S
C549        C550   1.414       .  A
C550        C551   1.404       .  A
C550        N557   1.438       .  S
C551        C552   1.406       .  A
C551        H556   1.084       .  S
C552        C553   1.410       .  A
C553        N554   1.438       .  S
N554        H558   1.046       .  S
N554        H559   1.046       .  S
N557        H560   1.043       .  S
N557        H561   1.046       .  S
C562        C563   1.408       .  A
C562        C567   1.404       .  A
C562        H569   1.083       .  S
C563        C564   1.418       .  A
C564        C565   1.406       .  A
C564        N571   1.438       .  S
C565        C566   1.398       .  A
C565        H570   1.084       .  S
C566        C567   1.406       .  A
C567        N568   1.438       .  S
N568        H572   1.046       .  S
N568        H573   1.046       .  S
N571        H574   1.046       .  S
N571        H575   1.046       .  S
C576        C577   1.401       .  A
C576        C581   1.402       .  A
C576        H583   1.084       .  S
C577        C578   1.415       .  A
C578        C579   1.400       .  A
C578        N585   1.439       .  S
C579        C580   1.403       .  A
C579        H584   1.084       .  S
C580        C581   1.416       .  A
C581        N582   1.438       .  S
N582        H586   1.045       .  S
N582        H587   1.043       .  S
N585        H588   1.043       .  S
N585        H589   1.046       .  S
C590        C591   1.403       .  A
C590        C595   1.406       .  A
C590        H597   1.084       .  S
C591        C592   1.414       .  A
C592        C593   1.400       .  A
C592        N599   1.439       .  S
C593        C594   1.403       .  A
C593        H598   1.084       .  S
C594        C595   1.410       .  A
C595        N596   1.438       .  S
N596        H600   1.046       .  S
N596        H601   1.046       .  S
N599        H603   1.045       .  S
N599       H1205   1.043   1_554  S
H602       N1202   1.043       .  S
C604        C605   1.397       .  A
C604        C609   1.401       .  A
C604       C1183   1.478       .  S
C605        C606   1.399       .  A
C605        H610   1.084       .  S
C606        C607   1.404       .  A
C606       C1197   1.480       .  S
C607        C608   1.416       .  A
C607        H611   1.079       .  S
C608        C609   1.415       .  A
C608        C615   1.511       .  S
C609        H612   1.078       .  S
C613        C614   1.398       .  A
C613        C618   1.396       .  A
C613       C1152   1.476       .  S
C614        C615   1.413       .  A
C614        H619   1.078       .  S
C615        C616   1.415       .  A
C616        C617   1.409       .  A
C616        H620   1.078       .  S
C617        C618   1.403       .  A
C617       C1166   1.494       .  S
C618        H621   1.082       .  S
C622        C623   1.407       .  A
C622        C627   1.400       .  A
C622       C1141   1.490       .  S
C623        C624   1.414       .  A
C623        H628   1.076       .  S
C624        C625   1.413       .  A
C624        C635   1.514       .  S
C625        C626   1.403       .  A
C625        H629   1.079       .  S
C626        C627   1.399       .  A
C626       C1124   1.481       .  S
C627        H630   1.081       .  S
C631        C632   1.399       .  A
C631        C636   1.402       .  A
C631       C1113   1.485       .  S
C632        C633   1.402       .  A
C632        H637   1.083       .  S
C633        C634   1.407       .  A
C633       C1099   1.494       .  S
C634        C635   1.415       .  A
C634        H638   1.077       .  S
C635        C636   1.414       .  A
C636        H639   1.077       .  S
C640        C641   1.396       .  A
C640        C645   1.401       .  A
C640       C1082   1.480       .  S
C641        C642   1.399       .  A
C641        H646   1.082       .  S
C642        C643   1.408       .  A
C642       C1068   1.489       .  S
C643        C644   1.417       .  A
C643        H647   1.076       .  S
C644        C645   1.418       .  A
C644        C651   1.517       .  S
C645        H648   1.078       .  S
C649        C650   1.405       .  A
C649        C654   1.400       .  A
C649       C1054   1.492       .  S
C650        C651   1.413       .  A
C650        H655   1.077       .  S
C651        C652   1.416       .  A
C652        C653   1.407       .  A
C652        H656   1.076       .  S
C653        C654   1.400       .  A
C653       C1040   1.487       .  S
C654        H657   1.082       .  S
C658        C659   1.405       .  A
C658        C663   1.399       .  A
C658       C1026   1.487       .  S
C659        C660   1.415       .  A
C659        H664   1.075       .  S
C660        C661   1.418       .  A
C660        C669   1.519       .  S
C661        C662   1.402       .  A
C661        H665   1.076       .  S
C662        C663   1.395       .  A
C662       C1012   1.481       .  S
C663        H666   1.084       .  S
C667        C668   1.401       .  A
C667        C672   1.397       .  A
C667        C998   1.476       .  S
C668        C669   1.416       .  A
C668        H673   1.076       .  S
C669        C670   1.414       .  A
C670        C671   1.406       .  A
C670        H674   1.076       .  S
C671        C672   1.401       .  A
C671        C987   1.492       .  S
C672        H675   1.083       .  S
C676        C677   1.404       .  A
C676        C681   1.404       .  A
C676        C959   1.489       .  S
C677        C678   1.403       .  A
C677        H682   1.083       .  S
C678        C679   1.404       .  A
C678        C970   1.487       .  S
C679        C680   1.407       .  A
C679        H683   1.080       .  S
C680        C681   1.412       .  A
C680        C687   1.504       .  S
C681        H684   1.080       .  S
C685        C686   1.404       .  A
C685        C690   1.401       .  A
C685        C928   1.487       .  S
C686        C687   1.410       .  A
C686        H691   1.080       .  S
C687        C688   1.414       .  A
C688        C689   1.401       .  A
C688        H692   1.080       .  S
C689        C690   1.395       .  A
C689        C942   1.475       .  S
C690        H693   1.084       .  S
C694        C695   1.401       .  A
C694        C699   1.400       .  A
C694        C914   1.487       .  S
C695        C696   1.400       .  A
C695        H700   1.084       .  S
C696        C697   1.406       .  A
C696        C900   1.488       .  S
C697        C698   1.415       .  A
C697        H701   1.078       .  S
C698        C699   1.411       .  A
C698        C705   1.508       .  S
C699        H702   1.079       .  S
C703        C704   1.404       .  A
C703        C708   1.402       .  A
C703        C886   1.493       .  S
C704        C705   1.415       .  A
C704        H709   1.078       .  S
C705        C706   1.412       .  A
C706        C707   1.402       .  A
C706        H710   1.079       .  S
C707        C708   1.399       .  A
C707        C872   1.478       .  S
C708        H711   1.083       .  S
C712        C749   1.461       .  S
C712       C1155   1.478       .  S
C712        N730   1.350       .  A
N713        N730   1.324       .  A
N713        N735   1.320       .  A
N713       Co750   2.082       .  S
C714        C752   1.466       .  S
C714        H759   1.081       .  S
C714        N739   1.340       .  A
H715        C756   1.081       .  S
C716        C720   1.456       .  S
C716        H745   1.081       .  S
Co717       N735   2.083       .  S
Co717       N725   2.082       .  S
Co717       N757   2.081       .  S
Co717       N733   2.085       .  S
Co717      Cl761   2.451       .  S
N718        C756   1.339       .  A
N718        N725   1.318       .  A
N718       Co719   2.081       .  S
Co719       N722   2.084       .  S
Co719       N739   2.086       .  S
Co719       N726   2.079       .  S
Co719      Cl761   2.450       .  S
C720       C1071   1.469       .  S
N721        N728   1.320       .  A
N722        N740   1.321   1_556  A
N722        N758   1.325       .  A
N723        C752   1.351       .  A
N723        N733   1.324       .  A
H724        C749   1.081       .  S
N725        N746   1.324       .  A
N726        N744   1.321   1_556  A
N726        N731   1.324       .  A
C727        C755   1.458       .  S
C727        C875   1.468       .  S
N728        C743   1.340       .  A
N728       Co750   2.079       .  S
C729        C732   1.465       .  S
C729        H763   1.081       .  S
C729        N757   1.340       .  A
C732        C931   1.483       .  S
C732        N753   1.349       .  A
N733        N739   1.319       .  A
N734        C760   1.339       .  A
N734        N736   1.320       .  A
N734       Co750   2.080       .  S
N735        C749   1.339       .  A
H737        C760   1.081       .  S
H738        C755   1.081       .  S
N741        N753   1.322       .  A
N741        N757   1.318       .  A
N741       Co750   2.074       .  S
C742        C756   1.465       .  S
C742       C1043   1.488       .  S
C742        N746   1.351       .  A
C743        H747   1.081       .  S
C748        C956   1.469       .  S
C748        N764   1.351       .  A
Co750      Cl761   2.450       .  S
N751        C762   1.349       .  A
C752        C903   1.490       .  S
C762       C1180   1.468       .  S
C765        C802   1.457       .  S
C765       C1096   1.469       .  S
N766        N783   1.325       .  A
N766        N788   1.322   1_556  A
N766       Co803   2.087   1_455  S
C767        H812   1.081       .  S
C767        N792   1.339       .  A
H768        C809   1.078       .  S
C769        C773   1.467       .  S
C769        H798   1.076       .  S
C769        N793   1.335   1_455  A
N771        C809   1.337   1_655  A
N771        N778   1.318       .  A
N771       Co772   2.072       .  S
Co772       N775   2.089       .  S
Co772       N792   2.082       .  S
Co772       N779   2.073       .  S
Co772      Cl814   2.449       .  S
C773       C1057   1.494       .  S
C773        N811   1.356       .  A
N774        N781   1.320       .  A
N774        N804   1.325   1_655  A
N774       Co807   2.086       .  S
N775        N793   1.316       .  A
N775        N811   1.325   1_655  A
N776        C805   1.350       .  A
H777        C802   1.081       .  S
N779        N797   1.319       .  A
N779        N784   1.322       .  A
C780        C808   1.458       .  S
C780       C1029   1.463       .  S
C780        N784   1.345       .  A
N781        C796   1.340   1_655  A
N781       Co803   2.077       .  S
C782        C785   1.470       .  S
C782        H816   1.078       .  S
C785        C973   1.493       .  S
N786        N792   1.320       .  A
N787        C813   1.341       .  A
N787        N789   1.320       .  A
N787       Co803   2.088       .  S
N789        N817   1.324       .  A
N789       Co807   2.080       .  S
H790        C813   1.081       .  S
H791        C808   1.081       .  S
N793       Co807   2.072       .  S
N794        N806   1.324       .  A
N794        N810   1.318   1_556  A
N794       Co803   2.079       .  S
C795       C1085   1.486       .  S
C795        N799   1.355       .  A
C796        C815   1.454       .  S
C796        H800   1.081       .  S
N797        C808   1.341       .  A
N797       Co807   2.083       .  S
C801        C813   1.462       .  S
C801        C945   1.477       .  S
C801        N817   1.348       .  A
Co803      Cl814   2.454       .  S
N804        C815   1.348       .  A
C805       C1001   1.471       .  S
Co807      Cl814   2.447       .  S
C815       C1127   1.467       .  S
C818        C855   1.458       .  S
C818       C1194   1.469       .  S
N819        N836   1.324       .  A
N819        N841   1.321   1_556  A
N819       Co856   2.081       .  S
C820        H865   1.081       .  S
C820        N845   1.340       .  A
H821        C862   1.079       .  S
C822        C826   1.468       .  S
C822        H851   1.078       .  S
C822        N846   1.338       .  A
N824        C862   1.338       .  A
N824        N831   1.318       .  A
N824       Co825   2.077       .  S
Co825       N828   2.084       .  S
Co825       N845   2.083   1_565  S
Co825       N832   2.070   1_565  S
Co825      Cl867   2.446       .  S
C826       C1138   1.493       .  S
C826        N864   1.354       .  A
N827        N834   1.321       .  A
N827        N857   1.324       .  A
N827       Co860   2.083       .  S
N828        N846   1.317       .  A
N828        N864   1.324       .  A
N829        C858   1.350       .  A
H830        C855   1.081       .  S
N832        N850   1.318       .  A
N832        N837   1.321       .  A
C833        C861   1.469       .  S
C833        C917   1.486       .  S
C833        N837   1.347       .  A
N834        C849   1.341       .  A
N834       Co856   2.085       .  S
C835        C838   1.470       .  S
C835        H869   1.076       .  S
C838        C984   1.495       .  S
N839        N845   1.320       .  A
N840        C866   1.340       .  A
N840        N842   1.319       .  A
N840       Co856   2.086   1_545  S
N842        N870   1.324       .  A
N842       Co860   2.082   1_545  S
H843        C866   1.081       .  S
H844        C861   1.081       .  S
N846       Co860   2.082       .  S
N847        N859   1.324       .  A
N847        N863   1.317   1_556  A
N847       Co856   2.083   1_545  S
C848       C1110   1.490       .  S
C848        N852   1.354       .  A
C849        C868   1.457       .  S
C849        H853   1.081       .  S
N850        C861   1.343       .  A
N850       Co860   2.089   1_545  S
C854        C866   1.465       .  S
C854       C1015   1.485       .  S
C854        N870   1.351       .  A
Co856      Cl867   2.451       .  S
N857        C868   1.348       .  A
C858        C889   1.471       .  S
Co860      Cl867   2.453       .  S
C868       C1169   1.469       .  S
C871        C872   1.403       .  A
C871        C876   1.399       .  A
C871        H878   1.084       .  S
C872        C873   1.408       .  A
C873        C874   1.407       .  A
C873        N880   1.437       .  S
C874        C875   1.404       .  A
C874        H879   1.084       .  S
C875        C876   1.413       .  A
C876        N877   1.439       .  S
N877        H881   1.046       .  S
N877        H882   1.043       .  S
N880        H883   1.045       .  S
N880        H884   1.046       .  S
C885        C886   1.407       .  A
C885        C890   1.402       .  A
C885        H892   1.083       .  S
C886        C887   1.414       .  A
C887        C888   1.402       .  A
C887        N894   1.433       .  S
C888        C889   1.400       .  A
C888        H893   1.084       .  S
C889        C890   1.414       .  A
N891        H895   1.046       .  S
N891        H896   1.043       .  S
N894        H897   1.046       .  S
N894        H898   1.046       .  S
C899        C900   1.403       .  A
C899        C904   1.408       .  A
C899        H906   1.084       .  S
C900        C901   1.412       .  A
C901        C902   1.404       .  A
C901        N908   1.439       .  S
C902        C903   1.406       .  A
C902        H907   1.081       .  S
C903        C904   1.417       .  A
C904        N905   1.438       .  S
N905        H909   1.046       .  S
N905        H910   1.046       .  S
N908        H911   1.046       .  S
N908        H912   1.046       .  S
C913        C914   1.403       .  A
C913        C918   1.405       .  A
C913        H920   1.084       .  S
C914        C915   1.418       .  A
C915        C916   1.397       .  A
C915        N922   1.433       .  S
C916        C917   1.403       .  A
C916        H921   1.082       .  S
C917        C918   1.417       .  A
C918        N919   1.438       .  S
N919        H923   1.046       .  S
N919        H924   1.046       .  S
N922        H925   1.045       .  S
N922        H926   1.042       .  S
C927        C928   1.404       .  A
C927        C932   1.405       .  A
C927        H934   1.083       .  S
C928        C929   1.412       .  A
C929        C930   1.399       .  A
C929        N936   1.433       .  S
C930        C931   1.403       .  A
C930        H935   1.082       .  S
C931        C932   1.416       .  A
C932        N933   1.438       .  S
N933        H937   1.046       .  S
N933        H938   1.046       .  S
N936        H939   1.045       .  S
N936        H940   1.046       .  S
C941        C942   1.402       .  A
C941        C946   1.404       .  A
C941        H948   1.084       .  S
C942        C943   1.415       .  A
C943        C944   1.402       .  A
C943        N950   1.439       .  S
C944        C945   1.404       .  A
C944        H949   1.084       .  S
C945        C946   1.411       .  A
C946        N947   1.438       .  S
N947        H951   1.046       .  S
N947        H952   1.046       .  S
N950        H953   1.043       .  S
N950        H954   1.046       .  S
C955        C956   1.400       .  A
C955        C960   1.408       .  A
C956        C957   1.406       .  A
C957        C958   1.405       .  A
C957        N964   1.438       .  S
C958        C959   1.407       .  A
C958        H963   1.084       .  S
C959        C960   1.415       .  A
C960        N961   1.437       .  S
N961        H965   1.046       .  S
N961        H966   1.046       .  S
N964        H967   1.046       .  S
N964        H968   1.046       .  S
C969        C970   1.404       .  A
C969        C974   1.402       .  A
C969        H976   1.084       .  S
C970        C971   1.415       .  A
C971        C972   1.403       .  A
C971        N978   1.437       .  S
C972        C973   1.410       .  A
C973        C974   1.415       .  A
C974        N975   1.435       .  S
N975        H979   1.046       .  S
N975        H980   1.046       .  S
N978        H981   1.043       .  S
C983        C984   1.411       .  A
C983        C988   1.409       .  A
C984        C985   1.420       .  A
C985        C986   1.394       .  A
C985        N992   1.429       .  S
C986        C987   1.403       .  A
C986        H991   1.084       .  S
C987        C988   1.412       .  A
C988        N989   1.438       .  S
N989        H994   1.046       .  S
N992        H995   1.045       .  S
N992        H996   1.044       .  S
C997        C998   1.403       .  A
C997       C1002   1.403       .  A
C997       H1004   1.084       .  S
C998        C999   1.416       .  A
C999       C1000   1.399       .  A
C999       N1006   1.439       .  S
C1000      C1001   1.401       .  A
C1000      H1005   1.084       .  S
C1001      C1002   1.416       .  A
C1002      N1003   1.439       .  S
N1003      H1007   1.046       .  S
N1003      H1008   1.043       .  S
N1006      H1009   1.043       .  S
N1006      H1010   1.046       .  S
C1011      C1012   1.401       .  A
C1011      C1016   1.407       .  A
C1011      H1018   1.084       .  S
C1012      C1013   1.410       .  A
C1013      C1014   1.404       .  A
C1013      N1020   1.438       .  S
C1014      C1015   1.405       .  A
C1014      H1019   1.084       .  S
C1015      C1016   1.416       .  A
C1016      N1017   1.437       .  S
N1017      H1021   1.046       .  S
N1017      H1022   1.046       .  S
N1020      H1023   1.046       .  S
N1020      H1024   1.046       .  S
C1025      C1026   1.406       .  A
C1025      C1030   1.404       .  A
C1025      H1032   1.083       .  S
C1026      C1027   1.417       .  A
C1027      C1028   1.404       .  A
C1027      N1034   1.438       .  S
C1028      C1029   1.396       .  A
C1028      H1033   1.084       .  S
C1029      C1030   1.406       .  A
C1030      N1031   1.438       .  S
N1031      H1035   1.046       .  S
N1031      H1036   1.045       .  S
N1034      H1037   1.046       .  S
N1034      H1038   1.046       .  S
C1039      C1040   1.404       .  A
C1039      C1044   1.408       .  A
C1039      H1046   1.084       .  S
C1040      C1041   1.415       .  A
C1041      C1042   1.396       .  A
C1041      N1048   1.433       .  S
C1042      C1043   1.404       .  A
C1042      H1047   1.082       .  S
C1043      C1044   1.417       .  A
C1044      N1045   1.438       .  S
N1045      H1049   1.046       .  S
N1045      H1050   1.046       .  S
N1048      H1051   1.045       .  S
N1048      H1052   1.042       .  S
C1053      C1054   1.402       .  A
C1053      C1058   1.394       .  A
C1053      H1060   1.084       .  S
C1054      C1055   1.413       .  A
C1055      C1056   1.408       .  A
C1055      N1062   1.437       .  S
C1056      C1057   1.409       .  A
C1056      H1061   1.083       .  S
C1057      C1058   1.421       .  A
C1058      N1059   1.429       .  S
N1059      H1063   1.044       .  S
N1059      H1064   1.045       .  S
N1062      H1065   1.046       .  S
N1062      H1066   1.046       .  S
C1067      C1068   1.406       .  A
C1067      C1072   1.403       .  A
C1067      H1074   1.084       .  S
C1068      C1069   1.420       .  A
C1069      C1070   1.398       .  A
C1069      N1076   1.433       .  S
C1070      C1071   1.398       .  A
C1071      C1072   1.415       .  A
C1072      N1073   1.439       .  S
N1073      H1077   1.046       .  S
N1073      H1078   1.043       .  S
N1076      H1079   1.045       .  S
C1081      C1082   1.400       .  A
C1081      C1086   1.398       .  A
C1081      H1088   1.084       .  S
C1082      C1083   1.417       .  A
C1083      C1084   1.403       .  A
C1083      N1090   1.438       .  S
C1084      C1085   1.404       .  A
C1084      H1089   1.084       .  S
C1085      C1086   1.420       .  A
N1087      H1091   1.042   1_554  S
N1087      H1092   1.045       .  S
N1090      H1093   1.043       .  S
N1090      H1094   1.046       .  S
C1095      C1096   1.400       .  A
C1095      C1100   1.405       .  A
C1095      H1102   1.084       .  S
C1096      C1097   1.413       .  A
C1097      C1098   1.401       .  A
C1098      C1099   1.408       .  A
C1098      H1103   1.083       .  S
C1099      C1100   1.417       .  A
C1100      N1101   1.438       .  S
N1101      H1105   1.046       .  S
N1101      H1106   1.046       .  S
N1104      H1107   1.043       .  S
N1104      H1108   1.045       .  S
C1109      C1110   1.405       .  A
C1109      C1114   1.405       .  A
C1109      H1116   1.084       .  S
C1110      C1111   1.419       .  A
C1111      C1112   1.407       .  A
C1112      C1113   1.401       .  A
C1112      H1117   1.084       .  S
C1113      C1114   1.412       .  A
C1114      N1115   1.438       .  S
N1115      H1119   1.046       .  S
N1115      H1120   1.046       .  S
N1118      H1121   1.046       .  S
N1118      H1122   1.046       .  S
C1123      C1124   1.403       .  A
C1123      C1128   1.400       .  A
C1123      H1130   1.084       .  S
C1124      C1125   1.412       .  A
C1125      C1126   1.405       .  A
C1125      N1132   1.438       .  S
C1126      C1127   1.400       .  A
C1126      H1131   1.084       .  S
C1127      C1128   1.415       .  A
C1128      N1129   1.439       .  S
N1129      H1133   1.045       .  S
N1129      H1134   1.043       .  S
N1132      H1135   1.046       .  S
N1132      H1136   1.046       .  S
C1137      C1138   1.407       .  A
C1137      C1142   1.399       .  A
C1137      H1144   1.084       .  S
C1138      C1139   1.417       .  A
C1139      C1140   1.405       .  A
C1139      N1146   1.435       .  S
C1140      C1141   1.403       .  A
C1140      H1145   1.084       .  S
C1141      C1142   1.417       .  A
C1142      N1143   1.433       .  S
N1143      H1147   1.042       .  S
N1143      H1148   1.045       .  S
N1146      H1149   1.046       .  S
N1146      H1150   1.046       .  S
C1151      C1152   1.402       .  A
C1151      C1156   1.402       .  A
C1151      H1158   1.084       .  S
C1152      C1153   1.414       .  A
C1153      C1154   1.404       .  A
C1153      N1160   1.438       .  S
C1154      C1155   1.406       .  A
C1154      H1159   1.084       .  S
C1155      C1156   1.410       .  A
C1156      N1157   1.438       .  S
N1157      H1161   1.046       .  S
N1157      H1162   1.046       .  S
N1160      H1163   1.043       .  S
N1160      H1164   1.046       .  S
C1165      C1166   1.408       .  A
C1165      C1170   1.404       .  A
C1165      H1172   1.083       .  S
C1166      C1167   1.418       .  A
C1167      C1168   1.406       .  A
C1167      N1174   1.438       .  S
C1168      C1169   1.398       .  A
C1168      H1173   1.084       .  S
C1169      C1170   1.406       .  A
C1170      N1171   1.438       .  S
N1171      H1175   1.046       .  S
N1171      H1176   1.046       .  S
N1174      H1177   1.046       .  S
N1174      H1178   1.046       .  S
C1179      C1180   1.401       .  A
C1179      C1184   1.402       .  A
C1179      H1186   1.084       .  S
C1180      C1181   1.415       .  A
C1181      C1182   1.400       .  A
C1181      N1188   1.439       .  S
C1182      C1183   1.403       .  A
C1182      H1187   1.084       .  S
C1183      C1184   1.416       .  A
C1184      N1185   1.438       .  S
N1185      H1189   1.045       .  S
N1185      H1190   1.043       .  S
N1188      H1191   1.043       .  S
N1188      H1192   1.046       .  S
C1193      C1194   1.403       .  A
C1193      C1198   1.406       .  A
C1193      H1200   1.084       .  S
C1194      C1195   1.414       .  A
C1195      C1196   1.400       .  A
C1195      N1202   1.439       .  S
C1196      C1197   1.403       .  A
C1196      H1201   1.084       .  S
C1197      C1198   1.410       .  A
C1198      N1199   1.438       .  S
N1199      H1203   1.046       .  S
N1199      H1204   1.046       .  S
N1202      H1206   1.045       .  S
