geometry optimzed in LAMMPS
_audit_creation_date              2020-12-01 
_audit_creation_method            'lammps2cif' 
_symmetry_space_group_name_H-M    'P1' 
_symmetry_Int_Tables_number       1 
_symmetry_cell_setting            triclinic 
loop_ 
_symmetry_equiv_pos_as_xyz 
  x,y,z 
_cell_length_a                    28.84672839 
_cell_length_b                    42.10840579698275 
_cell_length_c                    40.03255773574185 
_cell_angle_alpha                 90.26793908916778 
_cell_angle_beta                  90.3938472170148 
_cell_angle_gamma                 90.4904724035593 
loop_ 
_atom_site_label 
_atom_site_type_symbol 
_atom_site_fract_x 
_atom_site_fract_y 
_atom_site_fract_z 
_atom_site_charge 
In1        In  0.68546428  0.79449775  0.25107011     1.36900
C2          C  0.72267032  0.85246117  0.25365274     0.78600
O3          O  0.70097257  0.80015428  0.30575973    -0.59900
O4          O  0.71245703  0.75506845  0.28420510    -0.50800
C5          C  0.59327249  0.78683183  0.24860534     0.71200
O6          O  0.61380824  0.81294233  0.24425996    -0.45600
C7          C  0.71492182  0.77405399  0.19135822     0.75900
O8          O  0.68174116  0.84651046  0.26268280    -0.57500
O9          O  0.73231988  0.76491337  0.21864911    -0.47600
O10         O  0.74435439  0.82872257  0.24274211    -0.53900
C11         C  0.71481184  0.77224380  0.31010700     0.86100
O12         O  0.62014314  0.76409524  0.25486377    -0.55800
O13         O  0.68189547  0.79312940  0.19489888    -0.59100
In14       In  0.80674716  0.71038112  0.00100368     1.36900
C15         C  0.76411961  0.65457864  0.50385189     0.78600
O16         O  0.81462670  0.71416126  0.05667214    -0.59900
O17         O  0.76273963  0.74166987  0.03348246    -0.50800
C18         C  0.89881861  0.71505782  0.00165034     0.71200
O19         O  0.87728098  0.68930260  0.50568375    -0.45600
C20         C  0.77977462  0.73062384  0.44101051     0.75900
O21         O  0.80584007  0.65766673  0.99526818    -0.57500
O22         O  0.78172429  0.74863002  0.46630020    -0.48600
O23         O  0.74427668  0.68019072  0.51124378    -0.53900
C24         C  0.78167921  0.73323992  0.06051213     0.86100
O25         O  0.87326831  0.73880974  0.99679274    -0.55800
O26         O  0.79262376  0.70268106  0.44663044    -0.59100
C27         C  0.81299196  0.97556745  0.26736667     0.04100
C28         C  0.86137831  0.97518324  0.26987375    -0.12000
C29         C  0.88652708  0.00349893  0.27334794     0.01600
C30         C  0.86320078  0.03246082  0.27540621    -0.10600
C31         C  0.81464433  0.03349755  0.27200491     0.04100
C32         C  0.78968016  0.00475997  0.26814136    -0.10000
H33         H  0.87961285  0.95282245  0.26832963     0.09700
H34         H  0.88306063  0.05427929  0.27825191     0.07200
H35         H  0.75236030  0.00510804  0.26498135     0.07100
C36         C  0.66744823  0.47666528  0.00115950     0.04100
C37         C  0.61894442  0.47578202  0.99954392    -0.12000
C38         C  0.59387408  0.50398538  0.99769378     0.01600
C39         C  0.61729618  0.53323663  0.99778901    -0.10600
C40         C  0.66583049  0.53426473  0.00010215     0.04100
C41         C  0.69075797  0.50591961  0.00168751    -0.10000
H42         H  0.60073890  0.45314933  0.99942788     0.09700
H43         H  0.59783159  0.55509812  0.99635398     0.07200
H44         H  0.72830256  0.50663119  0.00309753     0.07100
In45       In  0.79071048  0.29727851  0.00916334     1.36900
C46         C  0.75817279  0.35547260  0.00453829     0.78600
O47         O  0.80109461  0.29128537  0.45357465    -0.59900
O48         O  0.74094525  0.27152475  0.47516657    -0.50800
C49         C  0.88147392  0.28842412  0.01259566     0.71200
O50         O  0.86304519  0.31541166  0.01257687    -0.45600
C51         C  0.75935958  0.27565266  0.06788939     0.75900
O52         O  0.79961890  0.35002219  0.01261379    -0.57500
O53         O  0.76216240  0.25847790  0.04211597    -0.47600
O54         O  0.73353748  0.33117375  0.99886250    -0.53900
C55         C  0.76360876  0.27628865  0.44880531     0.86100
O56         O  0.85323758  0.26539903  0.01076830    -0.55800
O57         O  0.77314193  0.30371477  0.06347829    -0.59100
In58       In  0.67134624  0.20896669  0.25778827     1.36900
C59         C  0.71722482  0.15425335  0.26295844     0.78600
O60         O  0.67845066  0.20332267  0.20239236    -0.59900
O61         O  0.69757963  0.24757166  0.22367859    -0.50800
C62         C  0.57895937  0.21358136  0.25442503     0.71200
O63         O  0.60016684  0.18774224  0.25078238    -0.45600
C64         C  0.69760758  0.23335691  0.31709783     0.75900
O65         O  0.67389816  0.15618244  0.26636207    -0.57500
O66         O  0.71615827  0.24135136  0.28992132    -0.47600
O67         O  0.73685055  0.18040012  0.25685974    -0.53900
C68         C  0.69449196  0.23080045  0.19752257     0.86100
O69         O  0.60518840  0.23724249  0.25972690    -0.55800
O70         O  0.66463007  0.21385037  0.31326886    -0.59100
In71       In  0.30017366  0.79493148  0.24942428     1.36900
C72         C  0.25665747  0.85028851  0.25074467     0.78600
O73         O  0.30501322  0.79448299  0.19366401    -0.59900
O74         O  0.25734144  0.76291119  0.21623412    -0.50800
C75         C  0.39181514  0.78746834  0.24787200     0.71200
O76         O  0.37225685  0.81402251  0.24565108    -0.45600
C77         C  0.27531551  0.77209612  0.30849244     0.75900
O78         O  0.29959255  0.84787102  0.25607058    -0.57500
O79         O  0.26876243  0.75692378  0.28161169    -0.47600
O80         O  0.23617980  0.82441624  0.24431887    -0.53900
C81         C  0.27445047  0.77325454  0.18943972     0.86100
O82         O  0.36425855  0.76432093  0.25150742    -0.55800
O83         O  0.29562122  0.79843272  0.30500389    -0.59100
In84       In  0.19100964  0.70507030  0.99779407     1.36900
C85         C  0.23304799  0.64954766  0.99577616     0.78600
O86         O  0.19376931  0.70163361  0.44207280    -0.59900
O87         O  0.22248618  0.74273537  0.46513290    -0.50800
C88         C  0.09980917  0.71193016  0.00088576     0.71200
O89         O  0.11962609  0.68558391  0.00412535    -0.45600
C90         C  0.21805229  0.72718266  0.05737458     0.75900
O91         O  0.19054308  0.65268537  0.98940278    -0.57500
O92         O  0.23379637  0.73789666  0.03029503    -0.47600
O93         O  0.25422431  0.67490822  0.00330467    -0.53900
C94         C  0.21466109  0.72770882  0.43832433     0.86100
O95         O  0.12694112  0.73503670  0.99583546    -0.55800
O96         O  0.18819151  0.70543321  0.05353460    -0.59100
C97         C  0.32179544  0.52727903  0.99188163     0.04100
C98         C  0.37029955  0.52703234  0.99148907    -0.12000
C99         C  0.39409299  0.49829936  0.99237908     0.01600
C100        C  0.36935717  0.46955683  0.99316069    -0.10600
C101        C  0.32074794  0.46970264  0.99298233     0.04100
C102        C  0.29705174  0.49856192  0.99242639    -0.10000
H103        H  0.38954630  0.54924911  0.99117854     0.09700
H104        H  0.38774928  0.44727606  0.99406397     0.07200
H105        H  0.25935703  0.49866976  0.99303446     0.07100
In106      In  0.17300624  0.29690141  0.00186168     1.36900
C107        C  0.21862376  0.35140899  0.49918756     0.78600
O108        O  0.17346422  0.30095855  0.05763642    -0.59900
O109        O  0.20787701  0.26177018  0.03552188    -0.50800
C110        C  0.08162983  0.28989847  0.00718670     0.71200
O111        O  0.10240890  0.31594006  0.51015408    -0.45600
C112        C  0.19925659  0.27386122  0.44250373     0.75900
O113        O  0.17725482  0.34844550  0.98841740    -0.57500
O114        O  0.21247923  0.26187561  0.46977267    -0.47600
O115        O  0.23627156  0.32668704  0.51116301    -0.53900
C116        C  0.19720164  0.27631502  0.06205200     0.86100
O117        O  0.10798843  0.26694670  0.00068106    -0.55800
O118        O  0.17160781  0.29659791  0.44596979    -0.59100
In119      In  0.28512378  0.20886976  0.25162311     1.36900
C120        C  0.24276086  0.15241343  0.25165053     0.78600
O121        O  0.28504029  0.20666180  0.30761793    -0.59900
O122        O  0.25214291  0.24567787  0.28437656    -0.50800
C123        C  0.37737043  0.21461740  0.25301152     0.71200
O124        O  0.35627414  0.18838770  0.25417440    -0.45600
C125        C  0.25698916  0.23265385  0.19299001     0.75900
O126        O  0.28278695  0.15660559  0.24013023    -0.57500
O127        O  0.24328058  0.24332904  0.22061898    -0.47600
O128        O  0.22368710  0.17725053  0.26223085    -0.53900
C129        C  0.26197988  0.23174829  0.31134390     0.86100
O130        O  0.35125256  0.23847388  0.25205127    -0.55800
O131        O  0.28485659  0.21000273  0.19561852    -0.59100
C132        C  0.15819216  0.02770114  0.26038427     0.04100
C133        C  0.11002168  0.02707798  0.26380467    -0.12000
C134        C  0.08593638  0.99819617  0.26431776     0.01600
C135        C  0.11007349  0.96958748  0.26162496    -0.10600
C136        C  0.15850912  0.96985871  0.25820758     0.04100
C137        C  0.18247179  0.99908358  0.25745666    -0.10000
H138        H  0.09113180  0.04916648  0.26559741     0.09700
H139        H  0.09124266  0.94722129  0.26221588     0.07200
H140        H  0.21979489  0.99955754  0.25455642     0.07100
C141        C  0.18234459  0.05884938  0.25855771    -0.04400
C142        C  0.19833711  0.07012492  0.22752711    -0.01500
C143        C  0.21749401  0.10094678  0.22509090     0.03500
C144        C  0.22076931  0.12060138  0.25371038    -0.04300
C145        C  0.20424976  0.10942739  0.28468823    -0.01500
C146        C  0.18531911  0.07856370  0.28713261     0.03500
C147        C  0.19321695  0.05041292  0.19787542     0.38200
C148        C  0.20723522  0.12955789  0.31417898     0.38200
C149        C  0.16894332  0.06701494  0.31908850     0.36600
C150        C  0.23119345  0.11314062  0.19276642     0.36600
N151        N  0.15584849  0.05781951  0.34456642    -0.38200
N152        N  0.24162649  0.12300077  0.16692428    -0.38200
N153        N  0.20949928  0.14576540  0.33757555    -0.37700
N154        N  0.18882081  0.03452796  0.17437773    -0.37700
C155        C  0.24653257  0.24331094  0.34473227    -0.04400
C156        C  0.27589435  0.24069634  0.37301602    -0.01500
C157        C  0.26083668  0.25105037  0.40475874     0.03500
C158        C  0.21532799  0.26274400  0.40899712    -0.04300
C159        C  0.18572833  0.26485730  0.38071121    -0.01500
C160        C  0.20160866  0.25596565  0.34872326     0.03500
C161        C  0.32230505  0.22811423  0.36943082     0.38200
C162        C  0.13802596  0.27492403  0.38449282     0.38200
C163        C  0.17080031  0.25896681  0.32009199     0.36600
C164        C  0.29323782  0.25090634  0.43265202     0.36600
N165        N  0.14629010  0.26156632  0.29727271    -0.38200
N166        N  0.31936248  0.25096248  0.45472685    -0.38200
N167        N  0.09989827  0.28273657  0.38746550    -0.37700
N168        N  0.35918617  0.21788103  0.36658471    -0.37700
C169        C  0.24188790  0.24537220  0.15997379    -0.04400
C170        C  0.27341710  0.24633721  0.13301767    -0.01500
C171        C  0.25882442  0.25674070  0.10122289     0.03500
C172        C  0.21240167  0.26583804  0.09577576    -0.04300
C173        C  0.18117678  0.26583760  0.12285162    -0.01500
C174        C  0.19590906  0.25591599  0.15485844     0.03500
C175        C  0.32162595  0.23790708  0.13817269     0.38200
C176        C  0.13329385  0.27499340  0.11766337     0.38200
C177        C  0.16311282  0.25585261  0.18219465     0.36600
C178        C  0.29238352  0.25969013  0.07452439     0.36600
N179        N  0.13687843  0.25601935  0.20394220    -0.38200
N180        N  0.31917049  0.26233992  0.05330643    -0.38200
N181        N  0.09501085  0.28214485  0.11373032    -0.37700
N182        N  0.36007546  0.23124968  0.14231327    -0.37700
C183        C  0.24400614  0.38201311  0.99737132    -0.04400
C184        C  0.26495271  0.39467518  0.02655632    -0.01500
C185        C  0.28975699  0.42355440  0.02512906     0.03500
C186        C  0.29441502  0.43951766  0.99443381    -0.04300
C187        C  0.27427184  0.42652363  0.46557040    -0.01500
C188        C  0.24914156  0.39774210  0.46696209     0.03500
C189        C  0.26002789  0.37837305  0.05822698     0.38200
C190        C  0.28000978  0.44269055  0.43392215     0.38200
C191        C  0.23006817  0.38384259  0.43654414     0.36600
C192        C  0.30954236  0.43728809  0.05538049     0.36600
N193        N  0.21506978  0.37263617  0.41228283    -0.38200
N194        N  0.32504862  0.44832501  0.07955568    -0.38200
N195        N  0.28463468  0.45555664  0.40866756    -0.37700
N196        N  0.25606808  0.36525617  0.08340287    -0.37700
C197        C  0.29737252  0.55797764  0.99326932    -0.04400
C198        C  0.26960289  0.56778388  0.46655906    -0.01500
C199        C  0.24910495  0.59800868  0.46707851     0.03500
C200        C  0.25599312  0.61837707  0.99462637    -0.04300
C201        C  0.28355768  0.60834860  0.02180941    -0.01500
C202        C  0.30342466  0.57796484  0.02139828     0.03500
C203        C  0.26288206  0.54708235  0.43781993     0.38200
C204        C  0.29094979  0.62899337  0.05050929     0.38200
C205        C  0.32879285  0.56673872  0.05043089     0.36600
C206        C  0.22282642  0.60874704  0.43827326     0.36600
N207        N  0.34873202  0.55755419  0.07358490    -0.38200
N208        N  0.20212060  0.61742344  0.41524284    -0.38200
N209        N  0.29731762  0.64546048  0.07333290    -0.37700
N210        N  0.25723482  0.53054418  0.41495781    -0.37700
C211        C  0.23203687  0.88102665  0.25234208    -0.04400
C212        C  0.20006570  0.88931745  0.22701215    -0.01500
C213        C  0.17653142  0.91851517  0.22865046     0.03500
C214        C  0.18417564  0.93940398  0.25592853    -0.04300
C215        C  0.21568317  0.93088522  0.28147329    -0.01500
C216        C  0.23975761  0.90192376  0.27958417     0.03500
C217        C  0.19206314  0.86811121  0.19882002     0.38200
C218        C  0.22204027  0.95141460  0.31039210     0.38200
C219        C  0.27082143  0.89297431  0.30655937     0.36600
C220        C  0.14509164  0.92729522  0.20186610     0.36600
N221        N  0.29548973  0.88573188  0.32808398    -0.38200
N222        N  0.12004945  0.93418007  0.18043739    -0.38200
N223        N  0.22693065  0.96781055  0.33345183    -0.37700
N224        N  0.18562114  0.85109194  0.17644920    -0.37700
C225        C  0.25994096  0.76150031  0.15567662    -0.04400
C226        C  0.26210480  0.78184114  0.12763662    -0.01500
C227        C  0.24999173  0.77044952  0.09547748     0.03500
C228        C  0.23325319  0.73895051  0.09105805    -0.04300
C229        C  0.23068997  0.71871291  0.11922956    -0.01500
C230        C  0.24446923  0.72978322  0.15114831     0.03500
C231        C  0.27516458  0.81502823  0.13180482     0.38200
C232        C  0.21542459  0.68591206  0.11554935     0.38200
C233        C  0.24420137  0.70786124  0.17905123     0.36600
C234        C  0.25450025  0.79162694  0.06714203     0.36600
N235        N  0.24405825  0.69024605  0.20115991    -0.38200
N236        N  0.25871183  0.80858191  0.04466888    -0.38200
N237        N  0.20319216  0.65977509  0.11276688    -0.37700
N238        N  0.28535324  0.84150896  0.13512852    -0.37700
C239        C  0.25994381  0.76030795  0.34158406    -0.04400
C240        C  0.21674290  0.74450120  0.34484262    -0.01500
C241        C  0.20165078  0.73416472  0.37646361     0.03500
C242        C  0.22978892  0.73928900  0.40510719    -0.04300
C243        C  0.27328328  0.75463029  0.40173805    -0.01500
C244        C  0.28798663  0.76547740  0.37025366     0.03500
C245        C  0.18678744  0.73982891  0.31590771     0.38200
C246        C  0.30432310  0.75769853  0.43030482     0.38200
C247        C  0.33286454  0.78106877  0.36736891     0.36600
C248        C  0.15653427  0.71891291  0.37946384     0.36600
N249        N  0.36857847  0.79358334  0.36512591    -0.38200
N250        N  0.12060516  0.70670173  0.38178040    -0.38200
N251        N  0.32919188  0.75986635  0.45302761    -0.37700
N252        N  0.16283455  0.73606123  0.29288931    -0.37700
C253        C  0.52732351  0.21570246  0.25278717    -0.04400
C254        C  0.50202079  0.19756649  0.22890359    -0.01500
C255        C  0.45310268  0.19796920  0.22859153     0.03500
C256        C  0.42880758  0.21660966  0.25197467    -0.04300
C257        C  0.45385809  0.23575175  0.27496142    -0.01500
C258        C  0.50290373  0.23516265  0.27553431     0.03500
C259        C  0.52616948  0.17905912  0.20389984     0.38200
C260        C  0.42918706  0.25500534  0.29903769     0.38200
C261        C  0.52799131  0.25337444  0.30075412     0.36600
C262        C  0.42761625  0.17975987  0.20350372     0.36600
N263        N  0.54800165  0.26781338  0.32095084    -0.38200
N264        N  0.40705907  0.16537965  0.18354315    -0.38200
N265        N  0.40957272  0.27040632  0.31824403    -0.37700
N266        N  0.54525734  0.16433241  0.18384604    -0.37700
C267        C  0.93248679  0.28482953  0.01433351    -0.04400
C268        C  0.95835588  0.30380289  0.03698307    -0.01500
C269        C  0.00707661  0.30489511  0.03517137     0.03500
C270        C  0.03054124  0.28648602  0.01100669    -0.04300
C271        C  0.00491165  0.26528602  0.48996853    -0.01500
C272        C  0.95598516  0.26460296  0.49155464     0.03500
C273        C  0.93470030  0.32182012  0.06269179     0.38200
C274        C  0.02823824  0.24585431  0.46534250     0.38200
C275        C  0.92963291  0.24443131  0.46874433     0.36600
C276        C  0.03278280  0.32495751  0.05849060     0.36600
N277        N  0.90858879  0.22832469  0.45057948    -0.38200
N278        N  0.05289811  0.34113990  0.07711786    -0.38200
N279        N  0.04688121  0.23037866  0.44569402    -0.37700
N280        N  0.91560304  0.33595321  0.08321170    -0.37700
C281        C  0.74145416  0.26398168  0.10069051    -0.04400
C282        C  0.71949831  0.28506605  0.12322946    -0.01500
C283        C  0.70437733  0.27432668  0.15478577     0.03500
C284        C  0.70940712  0.24210714  0.16387547    -0.04300
C285        C  0.72910423  0.22069712  0.14064138    -0.01500
C286        C  0.74596698  0.23167359  0.10969142     0.03500
C287        C  0.71017098  0.31759145  0.11353837     0.38200
C288        C  0.73239799  0.18712979  0.14829983     0.38200
C289        C  0.76913213  0.20952844  0.08761172     0.36600
C290        C  0.68156347  0.29632583  0.17722103     0.36600
N291        N  0.78760521  0.19176796  0.07013808    -0.38200
N292        N  0.66328809  0.31385441  0.19506313    -0.38200
N293        N  0.73439995  0.16023168  0.15387060    -0.37700
N294        N  0.70224044  0.34345659  0.10584531    -0.37700
C295        C  0.74708783  0.26542608  0.41503547    -0.04400
C296        C  0.75952379  0.28227203  0.38581145    -0.01500
C297        C  0.74283462  0.27232106  0.35406473     0.03500
C298        C  0.71386741  0.24501646  0.35084241    -0.04300
C299        C  0.70149812  0.22826316  0.38024549    -0.01500
C300        C  0.71784966  0.23840808  0.41190834     0.03500
C301        C  0.78860124  0.31054156  0.38819232     0.38200
C302        C  0.67260406  0.19988943  0.37842155     0.38200
C303        C  0.70538072  0.22009003  0.44122587     0.36600
C304        C  0.75487591  0.29102029  0.32495290     0.36600
N305        N  0.69530319  0.20547796  0.46453282    -0.38200
N306        N  0.76460321  0.30611767  0.30190668    -0.38200
N307        N  0.64950877  0.17729624  0.37722209    -0.37700
N308        N  0.81180226  0.33306093  0.38999562    -0.37700
C309        C  0.54271705  0.50267814  0.99623071    -0.04400
C310        C  0.51930875  0.50548894  0.46606074    -0.01500
C311        C  0.47058490  0.50342118  0.46466565     0.03500
C312        C  0.44526980  0.49873751  0.99353384    -0.04300
C313        C  0.46858490  0.49614224  0.02447280    -0.01500
C314        C  0.51730341  0.49795237  0.02579462     0.03500
C315        C  0.54558226  0.51013120  0.43567927     0.38200
C316        C  0.44234884  0.49238863  0.05500725     0.38200
C317        C  0.54138675  0.49532888  0.05759132     0.36600
C318        C  0.44648744  0.50606045  0.43288313     0.36600
N319        N  0.56073132  0.49322733  0.08289514    -0.38200
N320        N  0.42707509  0.50815425  0.40760479    -0.38200
N321        N  0.42145683  0.48954202  0.07939867    -0.37700
N322        N  0.56656409  0.51385305  0.41145389    -0.37700
C323        C  0.73926082  0.38778861  0.00238564    -0.04400
C324        C  0.74439025  0.40905838  0.02955159    -0.01500
C325        C  0.72132558  0.43839214  0.02909318     0.03500
C326        C  0.69385132  0.44671043  0.00118410    -0.04300
C327        C  0.69067868  0.42623037  0.47337831    -0.01500
C328        C  0.71319694  0.39675751  0.47395406     0.03500
C329        C  0.77198938  0.40031831  0.05848392     0.38200
C330        C  0.66496779  0.43571900  0.44380762     0.38200
C331        C  0.71111192  0.37614325  0.44480903     0.36600
C332        C  0.72452148  0.45946094  0.05782667     0.36600
N333        N  0.70961148  0.35984350  0.42146612    -0.38200
N334        N  0.72713566  0.47627904  0.08072366    -0.38200
N335        N  0.64441306  0.44340441  0.42031264    -0.37700
N336        N  0.79420673  0.39334230  0.08144506    -0.37700
C337        C  0.93769559  0.00276076  0.27135761    -0.04400
C338        C  0.96503527  0.00247868  0.30068510    -0.01500
C339        C  0.01367865  0.00058887  0.29841283     0.03500
C340        C  0.03488347  0.99841490  0.26684473    -0.04300
C341        C  0.00756896  0.99880254  0.23752459    -0.01500
C342        C  0.95907657  0.00129941  0.23976733     0.03500
C343        C  0.94308152  0.00422288  0.33309848     0.38200
C344        C  0.02951176  0.99720183  0.20504827     0.38200
C345        C  0.93125386  0.00322535  0.20953511     0.36600
C346        C  0.04209730  0.00123649  0.32844215     0.36600
N347        N  0.90931906  0.00512511  0.18533118    -0.38200
N348        N  0.06500219  0.00187334  0.35228581    -0.38200
N349        N  0.04700193  0.99594914  0.17915043    -0.37700
N350        N  0.92555729  0.00564167  0.35897215    -0.37700
C351        C  0.74295746  0.12374132  0.26586663    -0.04400
C352        C  0.72917217  0.10061906  0.28942993    -0.01500
C353        C  0.75339260  0.07170398  0.29216523     0.03500
C354        C  0.79037195  0.06479160  0.27034036    -0.04300
C355        C  0.80416585  0.08796103  0.24676765    -0.01500
C356        C  0.78157205  0.11754650  0.24525404     0.03500
C357        C  0.69119440  0.10700388  0.31203185     0.38200
C358        C  0.84102680  0.08126369  0.22329631     0.38200
C359        C  0.79836747  0.14141329  0.22215913     0.36600
C360        C  0.74133283  0.04978556  0.31860217     0.36600
N361        N  0.81270072  0.16039423  0.20404828    -0.38200
N362        N  0.73138065  0.03280134  0.34006811    -0.38200
N363        N  0.87053427  0.07613506  0.20463899    -0.37700
N364        N  0.66087587  0.11205130  0.33002650    -0.37700
C365        C  0.04864678  0.71508076  0.00287622    -0.04400
C366        C  0.02343346  0.69637910  0.02580657    -0.01500
C367        C  0.97463020  0.69702228  0.02584753     0.03500
C368        C  0.95035960  0.71670667  0.00323551    -0.04300
C369        C  0.97582157  0.73680204  0.48167167    -0.01500
C370        C  0.02475940  0.73579298  0.48121163     0.03500
C371        C  0.04766613  0.67718708  0.05030811     0.38200
C372        C  0.95167117  0.75776180  0.45890628     0.38200
C373        C  0.05004493  0.75503642  0.45735261     0.36600
C374        C  0.94955880  0.67801181  0.05006415     0.36600
N375        N  0.07034078  0.77033555  0.43836570    -0.38200
N376        N  0.92960716  0.66288403  0.06938504    -0.38200
N377        N  0.93266782  0.77467415  0.44079644    -0.37700
N378        N  0.06698499  0.66203593  0.06993690    -0.37700
C379        C  0.69090600  0.56509481  0.00104498    -0.04400
C380        C  0.72154436  0.57323558  0.47552425    -0.01500
C381        C  0.74606384  0.60225475  0.47664392     0.03500
C382        C  0.73954975  0.62356954  0.00317089    -0.04300
C383        C  0.70873485  0.61541735  0.02914415    -0.01500
C384        C  0.68469769  0.58615757  0.02815436     0.03500
C385        C  0.72681876  0.55214510  0.44703167     0.38200
C386        C  0.70246608  0.63668005  0.05736140     0.38200
C387        C  0.65424691  0.57737667  0.05539180     0.36600
C388        C  0.77629354  0.61072764  0.44917372     0.36600
N389        N  0.62985121  0.57023353  0.07697710    -0.38200
N390        N  0.80031497  0.61756800  0.42726634    -0.38200
N391        N  0.69716481  0.65354564  0.07989772    -0.37700
N392        N  0.73105618  0.53536484  0.42429945    -0.37700
C393        C  0.44314002  0.78426336  0.24593354    -0.04400
C394        C  0.46746327  0.76365760  0.26754148    -0.01500
C395        C  0.51656926  0.76364509  0.26793276     0.03500
C396        C  0.54172423  0.78380931  0.24623854    -0.04300
C397        C  0.51712865  0.80274119  0.22308962    -0.01500
C398        C  0.46829480  0.80320565  0.22318006     0.03500
C399        C  0.44214887  0.74373091  0.29074153     0.38200
C400        C  0.54194115  0.82164657  0.19865308     0.38200
C401        C  0.44395270  0.82314685  0.19942592     0.36600
C402        C  0.54091037  0.74429430  0.29214945     0.36600
N403        N  0.42451617  0.83913527  0.18062306    -0.38200
N404        N  0.56017363  0.72895292  0.31163923    -0.38200
N405        N  0.56167294  0.83673444  0.17918418    -0.37700
N406        N  0.42190914  0.72784697  0.30922829    -0.37700
C407        C  0.74394005  0.88463175  0.25642212    -0.04400
C408        C  0.73735023  0.90320494  0.28553998    -0.01500
C409        C  0.75956509  0.93303962  0.28896361     0.03500
C410        C  0.78732933  0.94503247  0.26294306    -0.04300
C411        C  0.79338237  0.92669772  0.23366406    -0.01500
C412        C  0.77218713  0.89652253  0.23054220     0.03500
C413        C  0.70985571  0.89095610  0.31292682     0.38200
C414        C  0.82179272  0.93871339  0.20668842     0.38200
C415        C  0.77936252  0.87791755  0.20044174     0.36600
C416        C  0.75639098  0.95035932  0.32024772     0.36600
N417        N  0.78560250  0.86317838  0.17644796    -0.38200
N418        N  0.75423304  0.96370106  0.34550936    -0.38200
N419        N  0.84446837  0.94790105  0.18499757    -0.37700
N420        N  0.68804876  0.88121154  0.33483225    -0.37700
C421        C  0.73261573  0.76104232  0.34310011    -0.04400
C422        C  0.76005779  0.78153347  0.36347149    -0.01500
C423        C  0.77545233  0.77163225  0.39532279     0.03500
C424        C  0.76355971  0.74114717  0.40734736    -0.04300
C425        C  0.73667024  0.72047667  0.38678090    -0.01500
C426        C  0.72166811  0.73026725  0.35477089     0.03500
C427        C  0.77450739  0.81241257  0.35112761     0.38200
C428        C  0.72264348  0.68944973  0.39894290     0.38200
C429        C  0.69376281  0.70882300  0.33430142     0.36600
C430        C  0.80527156  0.79247691  0.41508172     0.36600
N431        N  0.67167022  0.69165439  0.31794312    -0.38200
N432        N  0.82917969  0.80905444  0.43077926    -0.38200
N433        N  0.71121938  0.66474389  0.40858221    -0.37700
N434        N  0.78634000  0.83696376  0.34130578    -0.37700
C435        C  0.73218858  0.76363533  0.15785812    -0.04400
C436        C  0.75164277  0.73313645  0.15353096    -0.01500
C437        C  0.76845067  0.72347361  0.12202114     0.03500
C438        C  0.76564570  0.74402241  0.09413346    -0.04300
C439        C  0.74619230  0.77448386  0.09841344    -0.01500
C440        C  0.72964848  0.78423283  0.12996965     0.03500
C441        C  0.75276469  0.71089217  0.18112063     0.38200
C442        C  0.74432866  0.79642641  0.07056621     0.38200
C443        C  0.71108486  0.81598608  0.13357675     0.36600
C444        C  0.78714654  0.69173881  0.11832129     0.36600
N445        N  0.69626878  0.84133097  0.13615177    -0.38200
N446        N  0.80206177  0.66644432  0.11546890    -0.38200
N447        N  0.74281625  0.81391989  0.04837630    -0.37700
N448        N  0.75362695  0.69303098  0.20300054    -0.37700
In449      In  0.68519895  0.79501256  0.75099452     1.36900
C450        C  0.72240917  0.85296551  0.75371244     0.78600
O451        O  0.70039358  0.80054649  0.80573155    -0.59900
O452        O  0.71223037  0.75555162  0.78406650    -0.50800
C453        C  0.59302655  0.78739108  0.74861440     0.71200
O454        O  0.61358004  0.81347505  0.74415042    -0.45600
C455        C  0.71459031  0.77450996  0.69127584     0.75900
O456        O  0.68133910  0.84705470  0.76242818    -0.57500
O457        O  0.73194729  0.76536919  0.71857588    -0.47600
O458        O  0.74425377  0.82918602  0.74307003    -0.53900
C459        C  0.71437668  0.77266062  0.81002294     0.86100
O460        O  0.61988337  0.76465504  0.75490585    -0.55800
O461        O  0.68166683  0.79367239  0.69478854    -0.59100
In462      In  0.80697491  0.71029919  0.50127901     1.36900
C463        C  0.76392043  0.65463498  0.00343578     0.78600
O464        O  0.81459245  0.71411194  0.55697729    -0.59900
O465        O  0.76293949  0.74169072  0.53359661    -0.50800
C466        C  0.89905427  0.71504562  0.50186315     0.71200
O467        O  0.87698991  0.68933276  0.00543720    -0.45600
C468        C  0.77954375  0.73084447  0.94079740     0.75900
O469        O  0.80604855  0.65756997  0.49567991    -0.57500
O470        O  0.78127065  0.74875683  0.96616736    -0.48600
O471        O  0.74405975  0.68022494  0.01088816    -0.53900
C472        C  0.78169421  0.73325674  0.56069051     0.86100
O473        O  0.87345531  0.73877583  0.49704094    -0.55800
O474        O  0.79265587  0.70293944  0.94630260    -0.59100
C475        C  0.81276662  0.97607936  0.76747557     0.04100
C476        C  0.86117532  0.97568972  0.76985813    -0.12000
C477        C  0.88637349  0.00400647  0.77318470     0.01600
C478        C  0.86309366  0.03297919  0.77522855    -0.10600
C479        C  0.81452936  0.03401509  0.77202137     0.04100
C480        C  0.78949372  0.00529059  0.76831503    -0.10000
H481        H  0.87939121  0.95332225  0.76831013     0.09700
H482        H  0.88297809  0.05480676  0.77790374     0.07200
H483        H  0.75215356  0.00567291  0.76529259     0.07100
C484        C  0.66726016  0.47669278  0.50143929     0.04100
C485        C  0.61874761  0.47585913  0.50008022    -0.12000
C486        C  0.59372070  0.50409131  0.49847423     0.01600
C487        C  0.61719145  0.53332334  0.49854605    -0.10600
C488        C  0.66574802  0.53430700  0.50060049     0.04100
C489        C  0.69063283  0.50592847  0.50194582    -0.10000
H490        H  0.60049786  0.45324314  0.49996006     0.09700
H491        H  0.59775036  0.55520273  0.49724910     0.07200
H492        H  0.72818842  0.50659871  0.50317896     0.07100
In493      In  0.79090175  0.29733047  0.50900114     1.36900
C494        C  0.75797388  0.35545239  0.50448547     0.78600
O495        O  0.80117490  0.29107195  0.95377691    -0.59900
O496        O  0.74054070  0.27181579  0.97516895    -0.50800
C497        C  0.88168644  0.28836814  0.51231575     0.71200
O498        O  0.86332861  0.31537692  0.51207794    -0.45600
C499        C  0.75953352  0.27576387  0.56772020     0.75900
O500        O  0.79949155  0.35010061  0.51243384    -0.57500
O501        O  0.76171448  0.25869579  0.54183477    -0.47600
O502        O  0.73345545  0.33109177  0.49886289    -0.53900
C503        C  0.76346777  0.27637971  0.94888278     0.86100
O504        O  0.85337483  0.26537257  0.51073484    -0.55800
O505        O  0.77407214  0.30367660  0.56345978    -0.59100
In506      In  0.67142512  0.20944640  0.75768627     1.36900
C507        C  0.71723842  0.15474134  0.76293731     0.78600
O508        O  0.67807599  0.20370372  0.70227313    -0.59900
O509        O  0.69766114  0.24791826  0.72342517    -0.50800
C510        C  0.57909084  0.21398706  0.75438788     0.71200
O511        O  0.60032912  0.18815350  0.75078963    -0.45600
C512        C  0.69762526  0.23389639  0.81697829     0.75900
O513        O  0.67395213  0.15670945  0.76653606    -0.57500
O514        O  0.71647451  0.24170194  0.78984445    -0.47600
O515        O  0.73686428  0.18084071  0.75663099    -0.53900
C516        C  0.69425874  0.23112395  0.69729867     0.86100
O517        O  0.60526962  0.23769633  0.75959834    -0.55800
O518        O  0.66439332  0.21460993  0.81308822    -0.59100
In519      In  0.29985272  0.79506016  0.74949324     1.36900
C520        C  0.25620748  0.85034533  0.75063209     0.78600
O521        O  0.30495099  0.79462521  0.69374709    -0.59900
O522        O  0.25712806  0.76308399  0.71620904    -0.50800
C523        C  0.39154653  0.78783112  0.74809511     0.71200
O524        O  0.37185560  0.81433954  0.74590616    -0.45600
C525        C  0.27476448  0.77218553  0.80850475     0.75900
O526        O  0.29909604  0.84797368  0.75618409    -0.57500
O527        O  0.26865504  0.75690327  0.78164098    -0.47600
O528        O  0.23583717  0.82445937  0.74408985    -0.53900
C529        C  0.27436410  0.77342591  0.68945553     0.86100
O530        O  0.36410163  0.76460898  0.75164941    -0.55800
O531        O  0.29471090  0.79864875  0.80502377    -0.59100
In532      In  0.19128183  0.70517389  0.49778500     1.36900
C533        C  0.23316660  0.64958663  0.49588904     0.78600
O534        O  0.19352624  0.70155093  0.94206954    -0.59900
O535        O  0.22172676  0.74280733  0.96513124    -0.50800
C536        C  0.10006104  0.71203691  0.50086782     0.71200
O537        O  0.11993291  0.68575563  0.50447801    -0.45600
C538        C  0.21822881  0.72740437  0.55733333     0.75900
O539        O  0.19074950  0.65280619  0.48926586    -0.57500
O540        O  0.23397716  0.73810493  0.53024917    -0.47600
O541        O  0.25433758  0.67490622  0.50357242    -0.53900
C542        C  0.21409376  0.72774337  0.93832001     0.86100
O543        O  0.12715159  0.73508595  0.49542846    -0.55800
O544        O  0.18837478  0.70565262  0.55350345    -0.59100
C545        C  0.32163190  0.52720125  0.49244664     0.04100
C546        C  0.37013926  0.52698490  0.49209843    -0.12000
C547        C  0.39397264  0.49827059  0.49300672     0.01600
C548        C  0.36928065  0.46951172  0.49373680    -0.10600
C549        C  0.32067304  0.46962414  0.49350457     0.04100
C550        C  0.29692778  0.49846442  0.49295389    -0.10000
H551        H  0.38935911  0.54921333  0.49180208     0.09700
H552        H  0.38770502  0.44724374  0.49464446     0.07200
H553        H  0.25923171  0.49854085  0.49351831     0.07100
In554      In  0.17329029  0.29664272  0.50195678     1.36900
C555        C  0.21831111  0.35164779  0.99892639     0.78600
O556        O  0.17344098  0.30058420  0.55774789    -0.59900
O557        O  0.20837528  0.26161780  0.53563337    -0.50800
C558        C  0.08189258  0.28953194  0.50716629     0.71200
O559        O  0.10218743  0.31628688  0.01020005    -0.45600
C560        C  0.19912047  0.27401921  0.94248409     0.75900
O561        O  0.17755603  0.34823708  0.48869382    -0.57500
O562        O  0.21231232  0.26211122  0.96979684    -0.47600
O563        O  0.23594588  0.32695971  0.01099314    -0.53900
C564        C  0.19743089  0.27605622  0.56217008     0.86100
O565        O  0.10830779  0.26658924  0.50073822    -0.55800
O566        O  0.17137006  0.29671010  0.94586984    -0.59100
In567      In  0.28539271  0.20881007  0.75183655     1.36900
C568        C  0.24301413  0.15238858  0.75177256     0.78600
O569        O  0.28491304  0.20643202  0.80782238    -0.59900
O570        O  0.25310227  0.24588325  0.78458414    -0.50800
C571        C  0.37757159  0.21466985  0.75322530     0.71200
O572        O  0.35656784  0.18841358  0.75460742    -0.45600
C573        C  0.25713189  0.23243236  0.69317144     0.75900
O574        O  0.28307356  0.15656653  0.74029670    -0.57500
O575        O  0.24298553  0.24289196  0.72077737    -0.47600
O576        O  0.22394801  0.17721709  0.76238490    -0.53900
C577        C  0.26239972  0.23175315  0.81153464     0.86100
O578        O  0.35139633  0.23848552  0.75205832    -0.55800
O579        O  0.28548131  0.21006739  0.69585038    -0.59100
C580        C  0.15810807  0.02777615  0.76005097     0.04100
C581        C  0.10993817  0.02724488  0.76344222    -0.12000
C582        C  0.08571254  0.99841609  0.76378148     0.01600
C583        C  0.10970504  0.96976263  0.76091762    -0.10600
C584        C  0.15814769  0.96994497  0.75758252     0.04100
C585        C  0.18225521  0.99911855  0.75700414    -0.10000
H586        H  0.09115658  0.04936820  0.76535862     0.09700
H587        H  0.09077383  0.94743269  0.76140649     0.07200
H588        H  0.21959228  0.99951885  0.75418531     0.07100
C589        C  0.18238819  0.05888102  0.75835934    -0.04400
C590        C  0.19841276  0.07023416  0.72736929    -0.01500
C591        C  0.21762884  0.10104378  0.72503938     0.03500
C592        C  0.22095351  0.12059985  0.75372763    -0.04300
C593        C  0.20435959  0.10936566  0.78465811    -0.01500
C594        C  0.18536380  0.07851432  0.78699753     0.03500
C595        C  0.19322405  0.05062901  0.69764481     0.38200
C596        C  0.20727426  0.12943839  0.81419617     0.38200
C597        C  0.16889326  0.06691178  0.81890554     0.36600
C598        C  0.23127421  0.11334900  0.69274953     0.36600
N599        N  0.15573045  0.05769587  0.84435658    -0.38200
N600        N  0.24164427  0.12330471  0.66693482    -0.38200
N601        N  0.20946603  0.14560627  0.83762593    -0.37700
N602        N  0.18876502  0.03483042  0.67408871    -0.37700
C603        C  0.24685807  0.24334319  0.84487569    -0.04400
C604        C  0.27598160  0.24056654  0.87326172    -0.01500
C605        C  0.26080417  0.25100217  0.90494609     0.03500
C606        C  0.21535469  0.26287181  0.90902456    -0.04300
C607        C  0.18598000  0.26511070  0.88062592    -0.01500
C608        C  0.20202407  0.25617495  0.84869959     0.03500
C609        C  0.32225490  0.22770839  0.86984264     0.38200
C610        C  0.13833465  0.27536169  0.88420924     0.38200
C611        C  0.17145343  0.25927449  0.81994762     0.36600
C612        C  0.29303854  0.25077018  0.93293802     0.36600
N613        N  0.14715694  0.26193317  0.79701882    -0.38200
N614        N  0.31902557  0.25076967  0.95509661    -0.38200
N615        N  0.10024751  0.28332228  0.88700789    -0.37700
N616        N  0.35902001  0.21725020  0.86712854    -0.37700
C617        C  0.24201217  0.24509330  0.66012666    -0.04400
C618        C  0.27364660  0.24626707  0.63323824    -0.01500
C619        C  0.25908575  0.25668194  0.60143881     0.03500
C620        C  0.21259849  0.26558701  0.59591025    -0.04300
C621        C  0.18125703  0.26537395  0.62291602    -0.01500
C622        C  0.19593712  0.25541395  0.65492380     0.03500
C623        C  0.32191358  0.23801859  0.63845836     0.38200
C624        C  0.13331828  0.27435945  0.61765182     0.38200
C625        C  0.16298382  0.25505944  0.68216047     0.36600
C626        C  0.29273246  0.25984222  0.57482350     0.36600
N627        N  0.13661910  0.25498047  0.70382727    -0.38200
N628        N  0.31959186  0.26265659  0.55367597    -0.38200
N629        N  0.09499449  0.28138196  0.61365607    -0.37700
N630        N  0.36040322  0.23149416  0.64265159    -0.37700
C631        C  0.24430688  0.38178084  0.49769383    -0.04400
C632        C  0.26466943  0.39464112  0.52699399    -0.01500
C633        C  0.28924557  0.42361745  0.52564183     0.03500
C634        C  0.29440833  0.43941254  0.49489450    -0.04300
C635        C  0.27360080  0.42686380  0.96523743    -0.01500
C636        C  0.24833582  0.39814149  0.96669474     0.03500
C637        C  0.25946204  0.37840501  0.55867538     0.38200
C638        C  0.27882570  0.44318475  0.93363042     0.38200
C639        C  0.22857314  0.38449120  0.93637673     0.36600
C640        C  0.30826727  0.43763398  0.55600237     0.36600
N641        N  0.21301358  0.37349942  0.91218809    -0.38200
N642        N  0.32315085  0.44893185  0.58024581    -0.38200
N643        N  0.28303602  0.45615723  0.90839852    -0.37700
N644        N  0.25532276  0.36533105  0.58386065    -0.37700
C645        C  0.29718151  0.55789537  0.49376169    -0.04400
C646        C  0.26980944  0.56793948  0.96609017    -0.01500
C647        C  0.24918214  0.59811965  0.96674561     0.03500
C648        C  0.25600937  0.61837156  0.49486587    -0.04300
C649        C  0.28357453  0.60840872  0.52207964    -0.01500
C650        C  0.30333762  0.57799236  0.52179453     0.03500
C651        C  0.26321033  0.54735425  0.93724723     0.38200
C652        C  0.29113519  0.62917123  0.55066581     0.38200
C653        C  0.32874884  0.56686376  0.55085110     0.36600
C654        C  0.22279817  0.60890740  0.93801158     0.36600
N655        N  0.34873342  0.55776595  0.57402373    -0.38200
N656        N  0.20199147  0.61761165  0.91504033    -0.38200
N657        N  0.29765483  0.64573649  0.57339030    -0.37700
N658        N  0.25765764  0.53092134  0.91429107    -0.37700
C659        C  0.23152384  0.88105385  0.75211981    -0.04400
C660        C  0.19987891  0.88937790  0.72659059    -0.01500
C661        C  0.17639168  0.91860123  0.72808645     0.03500
C662        C  0.18371346  0.93945029  0.75543869    -0.04300
C663        C  0.21478132  0.93084863  0.78122665    -0.01500
C664        C  0.23886690  0.90189157  0.77945790     0.03500
C665        C  0.19213241  0.86816310  0.69837040     0.38200
C666        C  0.22061799  0.95127469  0.81027833     0.38200
C667        C  0.26952609  0.89287700  0.80664810     0.36600
C668        C  0.14532310  0.92743373  0.70110068     0.36600
N669        N  0.29386974  0.88558168  0.82834317    -0.38200
N670        N  0.12058857  0.93434286  0.67949651    -0.38200
N671        N  0.22505961  0.96758080  0.83345073    -0.37700
N672        N  0.18587477  0.85112385  0.67599083    -0.37700
C673        C  0.25996902  0.76169074  0.65566666    -0.04400
C674        C  0.26225193  0.78203095  0.62763021    -0.01500
C675        C  0.25023672  0.77064139  0.59545156     0.03500
C676        C  0.23342647  0.73916234  0.59101779    -0.04300
C677        C  0.23079730  0.71891765  0.61918123    -0.01500
C678        C  0.24450593  0.72997769  0.65111425     0.03500
C679        C  0.27534336  0.81521034  0.63181590     0.38200
C680        C  0.21557714  0.68610901  0.61547674     0.38200
C681        C  0.24419434  0.70804541  0.67900888     0.36600
C682        C  0.25498251  0.79178319  0.56710716     0.36600
N683        N  0.24402536  0.69042560  0.70111328    -0.38200
N684        N  0.25940563  0.80870280  0.54462544    -0.38200
N685        N  0.20339188  0.65996388  0.61267422    -0.37700
N686        N  0.28555264  0.84168695  0.63514563    -0.37700
C687        C  0.25935700  0.76037877  0.84158227    -0.04400
C688        C  0.21633854  0.74432618  0.84478441    -0.01500
C689        C  0.20121260  0.73401111  0.87640998     0.03500
C690        C  0.22915182  0.73939019  0.90510836    -0.04300
C691        C  0.27244790  0.75500760  0.90179694    -0.01500
C692        C  0.28718460  0.76581197  0.87030743     0.03500
C693        C  0.18661200  0.73935639  0.81578030     0.38200
C694        C  0.30326652  0.75843547  0.93044645     0.38200
C695        C  0.33191418  0.78161414  0.86747303     0.36600
C696        C  0.15625347  0.71852995  0.87936051     0.36600
N697        N  0.36751371  0.79428727  0.86525935    -0.38200
N698        N  0.12044585  0.70614394  0.88164600    -0.38200
N699        N  0.32794565  0.76090197  0.95324557    -0.37700
N700        N  0.16283782  0.73534479  0.79270907    -0.37700
C701        C  0.52746608  0.21603771  0.75280667    -0.04400
C702        C  0.50218503  0.19785535  0.72895271    -0.01500
C703        C  0.45327267  0.19813735  0.72873020     0.03500
C704        C  0.42897754  0.21674162  0.75213809    -0.04300
C705        C  0.45399488  0.23594723  0.77508130    -0.01500
C706        C  0.50303791  0.23543334  0.77560721     0.03500
C707        C  0.52634381  0.17941353  0.70389980     0.38200
C708        C  0.42929109  0.25518574  0.79915508     0.38200
C709        C  0.52811560  0.25361905  0.80085336     0.36600
C710        C  0.42778372  0.17983120  0.70372125     0.36600
N711        N  0.54811381  0.26802315  0.82108372    -0.38200
N712        N  0.40722002  0.16536914  0.68382948    -0.38200
N713        N  0.40963409  0.27057179  0.81835212    -0.37700
N714        N  0.54543498  0.16473903  0.68380540    -0.37700
C715        C  0.93269842  0.28471408  0.51409757    -0.04400
C716        C  0.95858604  0.30373011  0.53669769    -0.01500
C717        C  0.00732286  0.30463439  0.53503126     0.03500
C718        C  0.03078830  0.28611754  0.51096103    -0.04300
C719        C  0.00469210  0.26568033  0.98997332    -0.01500
C720        C  0.95578595  0.26488204  0.99164073     0.03500
C721        C  0.93493020  0.32203171  0.56218164     0.38200
C722        C  0.02802362  0.24641852  0.96520049     0.38200
C723        C  0.92946552  0.24474941  0.96877348     0.36600
C724        C  0.03306416  0.32458414  0.55843810     0.36600
N725        N  0.90846071  0.22866758  0.95056144    -0.38200
N726        N  0.05323157  0.34065170  0.57714547    -0.38200
N727        N  0.04669458  0.23109106  0.94543819    -0.37700
N728        N  0.91583743  0.33641983  0.58250622    -0.37700
C729        C  0.74141430  0.26413737  0.60046562    -0.04400
C730        C  0.71981411  0.28533188  0.62306157    -0.01500
C731        C  0.70452697  0.27462746  0.65458566     0.03500
C732        C  0.70902707  0.24234270  0.66358052    -0.04300
C733        C  0.72814341  0.22080972  0.64020591    -0.01500
C734        C  0.74523750  0.23174766  0.60930708     0.03500
C735        C  0.71098691  0.31794381  0.61344387     0.38200
C736        C  0.73053262  0.18715428  0.64763363     0.38200
C737        C  0.76794625  0.20947685  0.58711500     0.36600
C738        C  0.68203619  0.29673956  0.67706992     0.36600
N739        N  0.78606701  0.19163224  0.56954084    -0.38200
N740        N  0.66399779  0.31435238  0.69494772    -0.38200
N741        N  0.73178877  0.16019550  0.65301871    -0.37700
N742        N  0.70342958  0.34387731  0.60580640    -0.37700
C743        C  0.74700088  0.26563721  0.91505536    -0.04400
C744        C  0.75977206  0.28244181  0.88587597    -0.01500
C745        C  0.74306809  0.27263258  0.85408096     0.03500
C746        C  0.71383908  0.24547236  0.85076303    -0.04300
C747        C  0.70117791  0.22874276  0.88011688    -0.01500
C748        C  0.71748336  0.23877605  0.91182800     0.03500
C749        C  0.78925068  0.31050856  0.88835155     0.38200
C750        C  0.67202995  0.20049601  0.87819231     0.38200
C751        C  0.70470722  0.22048139  0.94109144     0.36600
C752        C  0.75533534  0.29133597  0.82502134     0.36600
N753        N  0.69438466  0.20587824  0.96434842    -0.38200
N754        N  0.76522510  0.30644115  0.80201643    -0.38200
N755        N  0.64872674  0.17800677  0.87690701    -0.37700
N756        N  0.81278659  0.33286018  0.89023219    -0.37700
C757        C  0.54256881  0.50281645  0.49701948    -0.04400
C758        C  0.51939657  0.50547274  0.96530516    -0.01500
C759        C  0.47065785  0.50348167  0.96396339     0.03500
C760        C  0.44514351  0.49874936  0.49422285    -0.04300
C761        C  0.46839440  0.49627231  0.52520019    -0.01500
C762        C  0.51710992  0.49815310  0.52657450     0.03500
C763        C  0.54560773  0.51015517  0.93490392     0.38200
C764        C  0.44208804  0.49250664  0.55570337     0.38200
C765        C  0.54113424  0.49564306  0.55840422     0.36600
C766        C  0.44647975  0.50631320  0.93223120     0.36600
N767        N  0.56041208  0.49363372  0.58374375    -0.38200
N768        N  0.42698068  0.50857488  0.90700467    -0.38200
N769        N  0.42111358  0.48963056  0.58005480    -0.37700
N770        N  0.56651425  0.51390251  0.91064871    -0.37700
C771        C  0.73888338  0.38773000  0.50243213    -0.04400
C772        C  0.74416857  0.40899270  0.52959076    -0.01500
C773        C  0.72116827  0.43834821  0.52919430     0.03500
C774        C  0.69358680  0.44670406  0.50135714    -0.04300
C775        C  0.69118589  0.42625352  0.97318408    -0.01500
C776        C  0.71377426  0.39681396  0.97381824     0.03500
C777        C  0.77186564  0.40022327  0.55846345     0.38200
C778        C  0.66563120  0.43572005  0.94353515     0.38200
C779        C  0.71196084  0.37622829  0.94464487     0.36600
C780        C  0.72454613  0.45941179  0.55792343     0.36600
N781        N  0.71067745  0.35995996  0.92127382    -0.38200
N782        N  0.72729266  0.47623367  0.58081030    -0.38200
N783        N  0.64518990  0.44339097  0.91998396    -0.37700
N784        N  0.79415236  0.39322086  0.58138013    -0.37700
C785        C  0.93752895  0.00325266  0.77108146    -0.04400
C786        C  0.96501437  0.00355429  0.80034293    -0.01500
C787        C  0.01363975  0.00160416  0.79798822     0.03500
C788        C  0.03467897  0.99874849  0.76641755    -0.04300
C789        C  0.00722852  0.99865514  0.73715820    -0.01500
C790        C  0.95876270  0.00128459  0.73946954     0.03500
C791        C  0.94323752  0.00601174  0.83276934     0.38200
C792        C  0.02900671  0.99653115  0.70465651     0.38200
C793        C  0.93085628  0.00301443  0.70926553     0.36600
C794        C  0.04220646  0.00289582  0.82793003     0.36600
N795        N  0.90890858  0.00482764  0.68506035    -0.38200
N796        N  0.06521863  0.00406118  0.85170372    -0.38200
N797        N  0.04634218  0.99487309  0.67872917    -0.37700
N798        N  0.92586174  0.00802029  0.85865292    -0.37700
C799        C  0.74293480  0.12423441  0.76583940    -0.04400
C800        C  0.72962851  0.10134690  0.78978725    -0.01500
C801        C  0.75385202  0.07243879  0.79252471     0.03500
C802        C  0.79031481  0.06530733  0.77034360    -0.04300
C803        C  0.80366915  0.08825332  0.74641079    -0.01500
C804        C  0.78105128  0.11782247  0.74483104     0.03500
C805        C  0.69215577  0.10796782  0.81274546     0.38200
C806        C  0.84012677  0.08134168  0.72268342     0.38200
C807        C  0.79723004  0.14143125  0.72122486     0.36600
C808        C  0.74242529  0.05078560  0.81934142     0.36600
N809        N  0.81103587  0.16021514  0.70268449    -0.38200
N810        N  0.73302558  0.03404004  0.84113905    -0.38200
N811        N  0.86932168  0.07603529  0.70382690    -0.37700
N812        N  0.66223434  0.11318612  0.83102772    -0.37700
C813        C  0.04888712  0.71517116  0.50288789    -0.04400
C814        C  0.02375003  0.69666517  0.52604307    -0.01500
C815        C  0.97494316  0.69726309  0.52612466     0.03500
C816        C  0.95059232  0.71674249  0.50336864    -0.04300
C817        C  0.97567850  0.73694639  0.98177221    -0.01500
C818        C  0.02461586  0.73593260  0.98139509     0.03500
C819        C  0.04805397  0.67771301  0.55071561     0.38200
C820        C  0.95163162  0.75811394  0.95916439     0.38200
C821        C  0.05001435  0.75544159  0.95783509     0.36600
C822        C  0.94993540  0.67841567  0.55051373     0.36600
N823        N  0.07041303  0.77095961  0.93910085    -0.38200
N824        N  0.93001850  0.66341774  0.56996327    -0.38200
N825        N  0.93270747  0.77518930  0.94118239    -0.37700
N826        N  0.06741867  0.66274874  0.57048138    -0.37700
C827        C  0.69088628  0.56512111  0.50151771    -0.04400
C828        C  0.72167590  0.57319935  0.97512097    -0.01500
C829        C  0.74612111  0.60224655  0.97625470     0.03500
C830        C  0.73969569  0.62353626  0.50361911    -0.04300
C831        C  0.70897187  0.61539080  0.52964787    -0.01500
C832        C  0.68483325  0.58616964  0.52866258     0.03500
C833        C  0.72717196  0.55205068  0.94669854     0.38200
C834        C  0.70287352  0.63662473  0.55790798     0.38200
C835        C  0.65439592  0.57743377  0.55592418     0.36600
C836        C  0.77650830  0.61068700  0.94886455     0.36600
N837        N  0.62998821  0.57033977  0.57752019    -0.38200
N838        N  0.80066221  0.61749100  0.92702040    -0.38200
N839        N  0.69767291  0.65345104  0.58048884    -0.37700
N840        N  0.73158273  0.53521803  0.92402786    -0.37700
C841        C  0.44288798  0.78475225  0.74617130    -0.04400
C842        C  0.46730224  0.76417247  0.76775049    -0.01500
C843        C  0.51640608  0.76419310  0.76807090     0.03500
C844        C  0.54147165  0.78439246  0.74635807    -0.04300
C845        C  0.51678586  0.80334721  0.72327875    -0.01500
C846        C  0.46795150  0.80374594  0.72341272     0.03500
C847        C  0.44208135  0.74420992  0.79096781     0.38200
C848        C  0.54149741  0.82232102  0.69884617     0.38200
C849        C  0.44351270  0.82362852  0.69965512     0.36600
C850        C  0.54084081  0.74480128  0.79220353     0.36600
N851        N  0.42400711  0.83955803  0.68083356    -0.38200
N852        N  0.56018841  0.72941869  0.81161352    -0.38200
N853        N  0.56114821  0.83746390  0.67938161    -0.37700
N854        N  0.42192036  0.72829422  0.80946856    -0.37700
C855        C  0.74363138  0.88514823  0.75648337    -0.04400
C856        C  0.73661593  0.90387106  0.78543680    -0.01500
C857        C  0.75885113  0.93370190  0.78888288     0.03500
C858        C  0.78705801  0.94554697  0.76302623    -0.04300
C859        C  0.79342621  0.92707876  0.73386788    -0.01500
C860        C  0.77222135  0.89691022  0.73074544     0.03500
C861        C  0.70861391  0.89178874  0.81263815     0.38200
C862        C  0.82211689  0.93894352  0.70698014     0.38200
C863        C  0.77969506  0.87818305  0.70076455     0.36600
C864        C  0.75520766  0.95116024  0.82004747     0.36600
N865        N  0.78613988  0.86333763  0.67687270    -0.38200
N866        N  0.75263508  0.96459488  0.84523002    -0.38200
N867        N  0.84499207  0.94794874  0.68531705    -0.37700
N868        N  0.68638321  0.88217301  0.83438491    -0.37700
C869        C  0.73216663  0.76142484  0.84300504    -0.04400
C870        C  0.75941412  0.78195476  0.86346763    -0.01500
C871        C  0.77488983  0.77199810  0.89527693     0.03500
C872        C  0.76325970  0.74142221  0.90717373    -0.04300
C873        C  0.73653449  0.72072267  0.88652908    -0.01500
C874        C  0.72144810  0.73057086  0.85455887     0.03500
C875        C  0.77354844  0.81295514  0.85126953     0.38200
C876        C  0.72276847  0.68959890  0.89857438     0.38200
C877        C  0.69366900  0.70910751  0.83402239     0.36600
C878        C  0.80452926  0.79288853  0.91512134     0.36600
N879        N  0.67166545  0.69192343  0.81761982    -0.38200
N880        N  0.82829905  0.80950543  0.93088142    -0.38200
N881        N  0.71156513  0.66481684  0.90813138    -0.37700
N882        N  0.78509616  0.83760846  0.84155584    -0.37700
C883        C  0.73179436  0.76395745  0.65780914    -0.04400
C884        C  0.75087468  0.73333689  0.65356659    -0.01500
C885        C  0.76786969  0.72357929  0.62214437     0.03500
C886        C  0.76550313  0.74412600  0.59423675    -0.04300
C887        C  0.74630299  0.77467803  0.59840875    -0.01500
C888        C  0.72963385  0.78453709  0.62989348     0.03500
C889        C  0.75136026  0.71106887  0.68114590     0.38200
C890        C  0.74488523  0.79660132  0.57053078     0.38200
C891        C  0.71133825  0.81637256  0.63340243     0.36600
C892        C  0.78634772  0.69177291  0.61856161     0.36600
N893        N  0.69673893  0.84178545  0.63588616    -0.38200
N894        N  0.80109676  0.66642066  0.61582264    -0.38200
N895        N  0.74375019  0.81406473  0.54830288    -0.37700
N896        N  0.75167553  0.69319763  0.70302446    -0.37700
loop_ 
_geom_bond_atom_site_label_1 
_geom_bond_atom_site_label_2 
_geom_bond_distance 
_geom_bond_site_symmetry_2 
_ccdc_geom_bond_type 
In1           O3   2.243       .  S
In1           O4   2.270       .  S
In1          O12   2.275       .  S
In1           O6   2.230       .  S
In1           O8   2.240       .  S
In1           O9   2.259       .  S
In1          O10   2.246       .  S
In1          O13   2.251       .  S
C2            O8   1.261       .  A
C2           O10   1.262       .  A
C2          C407   1.486       .  S
O3           C11   1.257       .  A
O4           C11   1.263       .  A
C5           O12   1.262       .  A
C5            O6   1.258       .  A
C5          C396   1.494       .  S
C7            O9   1.262       .  A
C7           O13   1.260       .  A
C7          C435   1.499       .  S
C11         C421   1.494       .  S
In14         O16   2.243       .  S
In14         O17   2.252       .  S
In14         O25   2.261   1_554  S
In14         O21   2.230   1_554  S
In14        O467   2.225       .  S
In14        O470   2.264   1_554  S
In14        O471   2.239       .  S
In14        O474   2.245   1_554  S
C15          O23   1.260       .  A
C15         O469   1.261       .  A
C15         C830   1.480       .  S
O16          C24   1.259       .  A
O17          C24   1.263       .  A
C18          O25   1.262   1_554  A
C18         O467   1.259       .  A
C18         C368   1.489       .  S
O19        In462   2.226       .  S
O19         C466   1.259       .  A
C20          O22   1.263       .  A
C20          O26   1.257       .  A
C20         C424   1.494       .  S
O21         C463   1.260   1_556  A
O22        In462   2.264       .  S
O23        In462   2.239       .  S
C24         C438   1.496       .  S
O26        In462   2.245       .  S
C27         C410   1.487       .  S
C27          C28   1.399       .  A
C27          C32   1.407   1_565  A
C28          C29   1.396   1_565  A
C28          H33   1.084       .  S
C29         C337   1.479       .  S
C29          C30   1.400       .  A
C30          C31   1.407       .  A
C30          H34   1.084       .  S
C31         C354   1.499       .  S
C31          C32   1.410       .  A
C32          H35   1.083       .  S
C36         C326   1.479       .  S
C36          C37   1.400   1_554  A
C36          C41   1.398       .  A
C37          C38   1.398       .  A
C37          H42   1.084       .  S
C38         C309   1.477       .  S
C38          C39   1.400       .  A
C39          C40   1.403   1_556  A
C39          H43   1.084       .  S
C40         C379   1.481       .  S
C40          C41   1.400       .  A
C41          H44   1.084       .  S
In45         O56   2.258       .  S
In45         O50   2.219       .  S
In45         O52   2.237       .  S
In45         O53   2.258       .  S
In45         O54   2.228   1_554  S
In45         O57   2.252       .  S
In45        O495   2.254   1_554  S
In45        O496   2.242   1_554  S
C46          O52   1.260       .  A
C46          O54   1.260   1_554  A
C46         C323   1.473       .  S
O47        In493   2.254       .  S
O47          C55   1.261       .  A
O48        In493   2.242       .  S
O48          C55   1.261       .  A
C49          O56   1.262       .  A
C49          O50   1.259       .  A
C49         C267   1.482       .  S
C51          O53   1.261       .  A
C51          O57   1.257       .  A
C51         C281   1.498       .  S
C55         C295   1.499       .  S
In58         O60   2.240       .  S
In58         O61   2.257       .  S
In58         O69   2.260       .  S
In58         O63   2.248       .  S
In58         O65   2.252       .  S
In58         O66   2.262       .  S
In58         O67   2.249       .  S
In58         O70   2.239       .  S
C59          O65   1.261       .  A
C59          O67   1.259       .  A
C59         C351   1.494       .  S
O60          C68   1.259       .  A
O61          C68   1.262       .  A
C62          O69   1.262       .  A
C62          O63   1.261       .  A
C62         C253   1.494       .  S
C64          O66   1.262       .  A
C64          O70   1.260       .  A
C64         C298   1.506       .  S
C68         C284   1.496       .  S
In71         O73   2.238       .  S
In71         O74   2.245       .  S
In71         O82   2.264       .  S
In71         O76   2.229       .  S
In71         O78   2.244       .  S
In71         O79   2.248       .  S
In71         O80   2.242       .  S
In71         O83   2.234       .  S
C72          O78   1.260       .  A
C72          O80   1.259       .  A
C72         C211   1.483       .  S
O73          C81   1.260       .  A
O74          C81   1.262       .  A
C75          O82   1.262       .  A
C75          O76   1.260       .  A
C75         C393   1.490       .  S
C77          O79   1.261       .  A
C77          O83   1.259       .  A
C77         C239   1.486       .  S
C81         C225   1.493       .  S
In84         O95   2.248       .  S
In84         O89   2.227   1_556  S
In84         O91   2.230       .  S
In84         O92   2.249   1_556  S
In84         O93   2.241   1_556  S
In84         O96   2.233   1_556  S
In84        O534   2.237       .  S
In84        O535   2.243       .  S
C85          O91   1.259       .  A
C85          O93   1.260   1_556  A
C85         C200   1.476       .  S
O86        In532   2.236       .  S
O86          C94   1.258       .  A
O87        In532   2.243       .  S
O87          C94   1.261       .  A
C88          O95   1.261   1_554  A
C88          O89   1.259       .  A
C88         C365   1.486       .  S
C90          O92   1.262       .  A
C90          O96   1.260       .  A
C90         C228   1.496       .  S
C94         C242   1.486       .  S
C97         C197   1.478       .  S
C97          C98   1.400       .  A
C97         C102   1.399       .  A
C98          C99   1.397       .  A
C98         H103   1.084       .  S
C99         C312   1.477       .  S
C99         C100   1.400       .  A
C100        C101   1.402       .  A
C100        H104   1.082       .  S
C101        C186   1.477       .  S
C101        C102   1.400       .  A
C102        H105   1.088       .  S
In106       O108   2.238       .  S
In106       O109   2.245       .  S
In106       O117   2.251       .  S
In106       O113   2.241   1_554  S
In106       O559   2.233       .  S
In106       O562   2.261   1_554  S
In106       O563   2.231       .  S
In106       O566   2.242   1_554  S
C107        O115   1.258       .  A
C107        O561   1.260       .  A
C107        C631   1.474       .  S
O108        C116   1.261       .  A
O109        C116   1.265       .  A
C110        O117   1.262       .  A
C110        O559   1.260       .  A
C110        C270   1.488       .  S
O111       In554   2.232       .  S
O111        C558   1.260       .  A
C112        O114   1.263       .  A
C112        O118   1.259       .  A
C112        C158   1.497       .  S
O113        C555   1.260       .  A
O114       In554   2.261       .  S
O115       In554   2.233       .  S
C116        C172   1.487       .  S
O118       In554   2.241       .  S
In119       O121   2.244       .  S
In119       O122   2.247       .  S
In119       O130   2.270       .  S
In119       O124   2.235       .  S
In119       O126   2.247       .  S
In119       O127   2.265       .  S
In119       O128   2.251       .  S
In119       O131   2.243       .  S
C120        O126   1.258       .  A
C120        O128   1.259       .  A
C120        C144   1.480       .  S
O121        C129   1.262       .  A
O122        C129   1.263       .  A
C123        O130   1.261       .  A
C123        O124   1.258       .  A
C123        C256   1.486       .  S
C125        O127   1.259       .  A
C125        O131   1.257       .  A
C125        C169   1.492       .  S
C129        C155   1.493       .  S
C132        C141   1.482       .  S
C132        C133   1.397       .  A
C132        C137   1.404   1_545  A
C133        C134   1.396   1_545  A
C133        H138   1.084       .  S
C134        C340   1.477       .  S
C134        C135   1.401       .  A
C135        C136   1.405       .  A
C135        H139   1.084       .  S
C136        C214   1.489       .  S
C136        C137   1.407       .  A
C137        H140   1.084       .  S
C141        C142   1.411       .  A
C141        C146   1.412       .  A
C142        C143   1.410       .  A
C142        C147   1.451       .  S
C143        C144   1.412       .  A
C143        C150   1.451       .  S
C144        C145   1.413       .  A
C145        C146   1.409       .  A
C145        C148   1.452       .  S
C146        C149   1.451       .  S
C147        N154   1.157       .  T
C148        N153   1.157       .  T
C149        N151   1.157       .  T
C150        N152   1.157       .  T
C155        C156   1.415       .  A
C155        C160   1.415       .  A
C156        C157   1.414       .  A
C156        C161   1.452       .  S
C157        C158   1.417       .  A
C157        C164   1.451       .  S
C158        C159   1.417       .  A
C159        C160   1.413       .  A
C159        C162   1.452       .  S
C160        C163   1.452       .  S
C161        N168   1.157       .  T
C162        N167   1.157       .  T
C163        N165   1.157       .  T
C164        N166   1.157       .  T
C169        C170   1.417       .  A
C169        C174   1.416       .  A
C170        C171   1.411       .  A
C170        C175   1.452       .  S
C171        C172   1.412       .  A
C171        C178   1.452       .  S
C172        C173   1.414       .  A
C173        C174   1.413       .  A
C173        C176   1.451       .  S
C174        C177   1.451       .  S
C175        N182   1.157       .  T
C176        N181   1.157       .  T
C177        N179   1.158       .  T
C178        N180   1.157       .  T
C183        C555   1.474       .  S
C183        C184   1.412   1_556  A
C183        C636   1.412       .  A
C184        C185   1.407       .  A
C184        C189   1.452       .  S
C185        C186   1.410   1_554  A
C185        C192   1.451       .  S
C186        C635   1.411       .  A
C187        C188   1.408       .  A
C187        C634   1.410       .  A
C187        C190   1.451       .  S
C188        C631   1.412       .  A
C188        C191   1.451       .  S
C189        N196   1.157       .  T
C190        N195   1.157       .  T
C191        N193   1.157       .  T
C192        N194   1.157       .  T
C197        C202   1.412   1_556  A
C197        C646   1.411       .  A
C198        C199   1.408       .  A
C198        C645   1.411       .  A
C198        C203   1.451       .  S
C199        C648   1.413       .  A
C199        C206   1.452       .  S
C200        C201   1.412   1_556  A
C200        C647   1.413       .  A
C201        C202   1.406       .  A
C201        C204   1.451       .  S
C202        C205   1.452       .  S
C203        N210   1.157       .  T
C204        N209   1.157       .  T
C205        N207   1.157       .  T
C206        N208   1.157       .  T
C211        C212   1.413       .  A
C211        C216   1.413       .  A
C212        C213   1.411       .  A
C212        C217   1.452       .  S
C213        C214   1.414       .  A
C213        C220   1.451       .  S
C214        C215   1.413       .  A
C215        C216   1.411       .  A
C215        C218   1.451       .  S
C216        C219   1.452       .  S
C217        N224   1.157       .  T
C218        N223   1.157       .  T
C219        N221   1.157       .  T
C220        N222   1.157       .  T
C225        C226   1.417       .  A
C225        C230   1.415       .  A
C226        C227   1.412       .  A
C226        C231   1.453       .  S
C227        C228   1.418       .  A
C227        C234   1.452       .  S
C228        C229   1.419       .  A
C229        C230   1.411       .  A
C229        C232   1.453       .  S
C230        C233   1.452       .  S
C231        N238   1.158       .  T
C232        N237   1.158       .  T
C233        N235   1.157       .  T
C234        N236   1.158       .  T
C239        C240   1.415       .  A
C239        C244   1.415       .  A
C240        C241   1.411       .  A
C240        C245   1.452       .  S
C241        C242   1.415       .  A
C241        C248   1.452       .  S
C242        C243   1.414       .  A
C243        C244   1.409       .  A
C243        C246   1.452       .  S
C244        C247   1.452       .  S
C245        N252   1.157       .  T
C246        N251   1.157       .  T
C247        N249   1.157       .  T
C248        N250   1.158       .  T
C253        C254   1.416       .  A
C253        C258   1.417       .  A
C254        C255   1.411       .  A
C254        C259   1.451       .  S
C255        C256   1.412       .  A
C255        C262   1.453       .  S
C256        C257   1.412       .  A
C257        C258   1.415       .  A
C257        C260   1.451       .  S
C258        C261   1.451       .  S
C259        N266   1.157       .  T
C260        N265   1.157       .  T
C261        N263   1.157       .  T
C262        N264   1.157       .  T
C267        C268   1.411       .  A
C267        C720   1.412   1_554  A
C268        C269   1.408   1_655  A
C268        C273   1.453       .  S
C269        C270   1.416       .  A
C269        C276   1.452       .  S
C270        C719   1.416   1_554  A
C271        C272   1.413   1_455  A
C271        C718   1.416       .  A
C271        C274   1.451       .  S
C272        C715   1.412       .  A
C272        C275   1.451       .  S
C273        N280   1.157       .  T
C274        N279   1.157       .  T
C275        N277   1.157       .  T
C276        N278   1.157       .  T
C281        C282   1.419       .  A
C281        C286   1.416       .  A
C282        C283   1.414       .  A
C282        C287   1.452       .  S
C283        C284   1.415       .  A
C283        C290   1.452       .  S
C284        C285   1.417       .  A
C285        C286   1.413       .  A
C285        C288   1.452       .  S
C286        C289   1.452       .  S
C287        N294   1.158       .  T
C288        N293   1.157       .  T
C289        N291   1.157       .  T
C290        N292   1.157       .  T
C295        C296   1.418       .  A
C295        C300   1.415       .  A
C296        C297   1.416       .  A
C296        C301   1.453       .  S
C297        C298   1.420       .  A
C297        C304   1.452       .  S
C298        C299   1.421       .  A
C299        C300   1.412       .  A
C299        C302   1.452       .  S
C300        C303   1.453       .  S
C301        N308   1.158       .  T
C302        N307   1.157       .  T
C303        N305   1.157       .  T
C304        N306   1.158       .  T
C309        C314   1.410   1_556  A
C309        C758   1.411       .  A
C310        C311   1.408       .  A
C310        C757   1.411       .  A
C310        C315   1.451       .  S
C311        C760   1.410       .  A
C311        C318   1.451       .  S
C312        C313   1.410   1_556  A
C312        C759   1.410       .  A
C313        C314   1.407       .  A
C313        C316   1.451       .  S
C314        C317   1.451       .  S
C315        N322   1.157       .  T
C316        N321   1.157       .  T
C317        N319   1.157       .  T
C318        N320   1.157       .  T
C323        C324   1.412       .  A
C323        C776   1.411   1_554  A
C324        C325   1.408       .  A
C324        C329   1.452       .  S
C325        C326   1.413       .  A
C325        C332   1.451       .  S
C326        C775   1.412   1_554  A
C327        C328   1.406       .  A
C327        C774   1.412       .  A
C327        C330   1.452       .  S
C328        C771   1.411       .  A
C328        C331   1.452       .  S
C329        N336   1.157       .  T
C330        N335   1.157       .  T
C331        N333   1.157       .  T
C332        N334   1.157       .  T
C337        C338   1.410       .  A
C337        C342   1.412       .  A
C338        C339   1.410   1_655  A
C338        C343   1.450       .  S
C339        C340   1.411   1_545  A
C339        C346   1.450       .  S
C340        C341   1.409       .  A
C341        C342   1.407   1_465  A
C341        C344   1.451       .  S
C342        C345   1.451       .  S
C343        N350   1.157       .  T
C344        N349   1.157       .  T
C345        N347   1.157       .  T
C346        N348   1.157       .  T
C351        C352   1.415       .  A
C351        C356   1.416       .  A
C352        C353   1.413       .  A
C352        C357   1.452       .  S
C353        C354   1.415       .  A
C353        C360   1.450       .  S
C354        C355   1.417       .  A
C355        C356   1.412       .  A
C355        C358   1.452       .  S
C356        C359   1.451       .  S
C357        N364   1.157       .  T
C358        N363   1.157       .  T
C359        N361   1.157       .  T
C360        N362   1.157       .  T
C365        C366   1.413       .  A
C365        C818   1.414   1_554  A
C366        C367   1.408   1_455  A
C366        C371   1.453       .  S
C367        C368   1.416       .  A
C367        C374   1.453       .  S
C368        C817   1.415   1_554  A
C369        C370   1.413   1_655  A
C369        C816   1.415       .  A
C369        C372   1.451       .  S
C370        C813   1.414       .  A
C370        C373   1.452       .  S
C371        N378   1.158       .  T
C372        N377   1.157       .  T
C373        N375   1.157       .  T
C374        N376   1.157       .  T
C379        C384   1.412       .  A
C379        C828   1.411   1_554  A
C380        C381   1.407       .  A
C380        C827   1.412       .  A
C380        C385   1.452       .  S
C381        C830   1.414       .  A
C381        C388   1.452       .  S
C382        C463   1.480       .  S
C382        C383   1.414       .  A
C382        C829   1.414   1_554  A
C383        C384   1.409       .  A
C383        C386   1.451       .  S
C384        C387   1.452       .  S
C385        N392   1.157       .  T
C386        N391   1.157       .  T
C387        N389   1.157       .  T
C388        N390   1.157       .  T
C393        C394   1.415       .  A
C393        C398   1.414       .  A
C394        C395   1.417       .  A
C394        C399   1.451       .  S
C395        C396   1.417       .  A
C395        C402   1.451       .  S
C396        C397   1.416       .  A
C397        C398   1.409       .  A
C397        C400   1.453       .  S
C398        C401   1.453       .  S
C399        N406   1.158       .  T
C400        N405   1.157       .  T
C401        N403   1.157       .  T
C402        N404   1.157       .  T
C407        C408   1.415       .  A
C407        C412   1.413       .  A
C408        C409   1.411       .  A
C408        C413   1.452       .  S
C409        C410   1.411       .  A
C409        C416   1.450       .  S
C410        C411   1.413       .  A
C411        C412   1.410       .  A
C411        C414   1.451       .  S
C412        C415   1.451       .  S
C413        N420   1.157       .  T
C414        N419   1.157       .  T
C415        N417   1.157       .  T
C416        N418   1.157       .  T
C421        C422   1.417       .  A
C421        C426   1.414       .  A
C422        C423   1.413       .  A
C422        C427   1.452       .  S
C423        C424   1.413       .  A
C423        C430   1.452       .  S
C424        C425   1.418       .  A
C425        C426   1.414       .  A
C425        C428   1.452       .  S
C426        C429   1.451       .  S
C427        N434   1.157       .  T
C428        N433   1.157       .  T
C429        N431   1.157       .  T
C430        N432   1.157       .  T
C435        C436   1.416       .  A
C435        C440   1.419       .  A
C436        C437   1.414       .  A
C436        C441   1.452       .  S
C437        C438   1.418       .  A
C437        C444   1.453       .  S
C438        C439   1.415       .  A
C439        C440   1.414       .  A
C439        C442   1.452       .  S
C440        C443   1.452       .  S
C441        N448   1.157       .  T
C442        N447   1.157       .  T
C443        N445   1.157       .  T
C444        N446   1.158       .  T
In449       O451   2.242       .  S
In449       O452   2.269       .  S
In449       O460   2.274       .  S
In449       O454   2.229       .  S
In449       O456   2.240       .  S
In449       O457   2.258       .  S
In449       O458   2.246       .  S
In449       O461   2.252       .  S
C450        O456   1.260       .  A
C450        O458   1.262       .  A
C450        C855   1.486       .  S
O451        C459   1.257       .  A
O452        C459   1.263       .  A
C453        O460   1.262       .  A
C453        O454   1.258       .  A
C453        C844   1.494       .  S
C455        O457   1.262       .  A
C455        O461   1.260       .  A
C455        C883   1.499       .  S
C459        C869   1.494       .  S
In462       O464   2.244       .  S
In462       O465   2.252       .  S
In462       O473   2.261       .  S
In462       O469   2.230       .  S
C463        O471   1.260       .  A
O464        C472   1.260       .  A
O465        C472   1.263       .  A
C466        O473   1.262       .  A
C466        C816   1.489       .  S
C468        O470   1.263       .  A
C468        O474   1.257       .  A
C468        C872   1.494       .  S
C472        C886   1.496       .  S
C475        C858   1.488       .  S
C475        C476   1.399       .  A
C475        C480   1.407   1_565  A
C476        C477   1.396   1_565  A
C476        H481   1.084       .  S
C477        C785   1.479       .  S
C477        C478   1.400       .  A
C478        C479   1.407       .  A
C478        H482   1.084       .  S
C479        C802   1.498       .  S
C479        C480   1.410       .  A
C480        H483   1.083       .  S
C484        C774   1.479       .  S
C484        C485   1.400       .  A
C484        C489   1.399       .  A
C485        C486   1.398       .  A
C485        H490   1.084       .  S
C486        C757   1.477       .  S
C486        C487   1.400       .  A
C487        C488   1.403       .  A
C487        H491   1.084       .  S
C488        C827   1.481       .  S
C488        C489   1.400       .  A
C489        H492   1.084       .  S
In493       O504   2.259       .  S
In493       O498   2.219       .  S
In493       O500   2.237       .  S
In493       O501   2.257       .  S
In493       O502   2.229       .  S
In493       O505   2.252       .  S
C494        O500   1.260       .  A
C494        O502   1.260       .  A
C494        C771   1.473       .  S
O495        C503   1.260       .  A
O496        C503   1.261       .  A
C497        O504   1.262       .  A
C497        O498   1.259       .  A
C497        C715   1.482       .  S
C499        O501   1.261       .  A
C499        O505   1.257       .  A
C499        C729   1.497       .  S
C503        C743   1.499       .  S
In506       O508   2.240       .  S
In506       O509   2.257       .  S
In506       O517   2.259       .  S
In506       O511   2.246       .  S
In506       O513   2.252       .  S
In506       O514   2.263       .  S
In506       O515   2.248       .  S
In506       O518   2.238       .  S
C507        O513   1.261       .  A
C507        O515   1.259       .  A
C507        C799   1.493       .  S
O508        C516   1.259       .  A
O509        C516   1.263       .  A
C510        O517   1.262       .  A
C510        O511   1.261       .  A
C510        C701   1.493       .  S
C512        O514   1.262       .  A
C512        O518   1.259       .  A
C512        C746   1.506       .  S
C516        C732   1.496       .  S
In519       O521   2.238       .  S
In519       O522   2.245       .  S
In519       O530   2.264       .  S
In519       O524   2.229       .  S
In519       O526   2.243       .  S
In519       O527   2.249       .  S
In519       O528   2.242       .  S
In519       O531   2.233       .  S
C520        O526   1.260       .  A
C520        O528   1.259       .  A
C520        C659   1.483       .  S
O521        C529   1.260       .  A
O522        C529   1.262       .  A
C523        O530   1.262       .  A
C523        O524   1.260       .  A
C523        C841   1.490       .  S
C525        O527   1.261       .  A
C525        O531   1.258       .  A
C525        C687   1.486       .  S
C529        C673   1.493       .  S
In532       O543   2.249       .  S
In532       O537   2.227       .  S
In532       O539   2.230       .  S
In532       O540   2.250       .  S
In532       O541   2.241       .  S
In532       O544   2.233       .  S
C533        O539   1.259       .  A
C533        O541   1.260       .  A
C533        C648   1.476       .  S
O534        C542   1.258       .  A
O535        C542   1.261       .  A
C536        O543   1.262       .  A
C536        O537   1.259       .  A
C536        C813   1.486       .  S
C538        O540   1.262       .  A
C538        O544   1.260       .  A
C538        C676   1.496       .  S
C542        C690   1.486       .  S
C545        C645   1.479       .  S
C545        C546   1.400       .  A
C545        C550   1.399       .  A
C546        C547   1.397       .  A
C546        H551   1.084       .  S
C547        C760   1.477       .  S
C547        C548   1.400       .  A
C548        C549   1.402       .  A
C548        H552   1.082       .  S
C549        C634   1.477       .  S
C549        C550   1.400       .  A
C550        H553   1.088       .  S
In554       O556   2.239       .  S
In554       O557   2.246       .  S
In554       O565   2.253       .  S
In554       O561   2.241       .  S
C555        O563   1.258   1_556  A
O556        C564   1.261       .  A
O557        C564   1.265       .  A
C558        O565   1.262       .  A
C558        C718   1.489       .  S
C560        O562   1.263       .  A
C560        O566   1.259       .  A
C560        C606   1.497       .  S
C564        C620   1.487       .  S
In567       O569   2.244       .  S
In567       O570   2.246       .  S
In567       O578   2.268       .  S
In567       O572   2.235       .  S
In567       O574   2.246       .  S
In567       O575   2.264       .  S
In567       O576   2.251       .  S
In567       O579   2.242       .  S
C568        O574   1.258       .  A
C568        O576   1.259       .  A
C568        C592   1.480       .  S
O569        C577   1.262       .  A
O570        C577   1.263       .  A
C571        O578   1.261       .  A
C571        O572   1.258       .  A
C571        C704   1.486       .  S
C573        O575   1.260       .  A
C573        O579   1.257       .  A
C573        C617   1.492       .  S
C577        C603   1.492       .  S
C580        C589   1.482       .  S
C580        C581   1.397       .  A
C580        C585   1.404   1_545  A
C581        C582   1.396   1_545  A
C581        H586   1.084       .  S
C582        C788   1.477       .  S
C582        C583   1.401       .  A
C583        C584   1.405       .  A
C583        H587   1.084       .  S
C584        C662   1.489       .  S
C584        C585   1.407       .  A
C585        H588   1.084       .  S
C589        C590   1.411       .  A
C589        C594   1.412       .  A
C590        C591   1.410       .  A
C590        C595   1.451       .  S
C591        C592   1.412       .  A
C591        C598   1.451       .  S
C592        C593   1.413       .  A
C593        C594   1.409       .  A
C593        C596   1.452       .  S
C594        C597   1.451       .  S
C595        N602   1.157       .  T
C596        N601   1.157       .  T
C597        N599   1.157       .  T
C598        N600   1.157       .  T
C603        C604   1.414       .  A
C603        C608   1.415       .  A
C604        C605   1.414       .  A
C604        C609   1.452       .  S
C605        C606   1.417       .  A
C605        C612   1.451       .  S
C606        C607   1.417       .  A
C607        C608   1.413       .  A
C607        C610   1.452       .  S
C608        C611   1.452       .  S
C609        N616   1.157       .  T
C610        N615   1.157       .  T
C611        N613   1.157       .  T
C612        N614   1.157       .  T
C617        C618   1.417       .  A
C617        C622   1.416       .  A
C618        C619   1.411       .  A
C618        C623   1.452       .  S
C619        C620   1.412       .  A
C619        C626   1.452       .  S
C620        C621   1.414       .  A
C621        C622   1.413       .  A
C621        C624   1.451       .  S
C622        C625   1.452       .  S
C623        N630   1.157       .  T
C624        N629   1.157       .  T
C625        N627   1.158       .  T
C626        N628   1.157       .  T
C631        C632   1.412       .  A
C632        C633   1.407       .  A
C632        C637   1.452       .  S
C633        C634   1.410       .  A
C633        C640   1.451       .  S
C635        C636   1.408       .  A
C635        C638   1.451       .  S
C636        C639   1.451       .  S
C637        N644   1.157       .  T
C638        N643   1.157       .  T
C639        N641   1.157       .  T
C640        N642   1.157       .  T
C645        C650   1.412       .  A
C646        C647   1.408       .  A
C646        C651   1.451       .  S
C647        C654   1.452       .  S
C648        C649   1.412       .  A
C649        C650   1.406       .  A
C649        C652   1.451       .  S
C650        C653   1.452       .  S
C651        N658   1.157       .  T
C652        N657   1.157       .  T
C653        N655   1.157       .  T
C654        N656   1.157       .  T
C659        C660   1.413       .  A
C659        C664   1.413       .  A
C660        C661   1.411       .  A
C660        C665   1.452       .  S
C661        C662   1.414       .  A
C661        C668   1.451       .  S
C662        C663   1.413       .  A
C663        C664   1.410       .  A
C663        C666   1.451       .  S
C664        C667   1.452       .  S
C665        N672   1.157       .  T
C666        N671   1.157       .  T
C667        N669   1.157       .  T
C668        N670   1.157       .  T
C673        C674   1.417       .  A
C673        C678   1.415       .  A
C674        C675   1.412       .  A
C674        C679   1.453       .  S
C675        C676   1.417       .  A
C675        C682   1.452       .  S
C676        C677   1.419       .  A
C677        C678   1.411       .  A
C677        C680   1.453       .  S
C678        C681   1.452       .  S
C679        N686   1.158       .  T
C680        N685   1.158       .  T
C681        N683   1.157       .  T
C682        N684   1.158       .  T
C687        C688   1.415       .  A
C687        C692   1.414       .  A
C688        C689   1.411       .  A
C688        C693   1.452       .  S
C689        C690   1.415       .  A
C689        C696   1.452       .  S
C690        C691   1.414       .  A
C691        C692   1.409       .  A
C691        C694   1.452       .  S
C692        C695   1.452       .  S
C693        N700   1.157       .  T
C694        N699   1.157       .  T
C695        N697   1.157       .  T
C696        N698   1.158       .  T
C701        C702   1.416       .  A
C701        C706   1.417       .  A
C702        C703   1.411       .  A
C702        C707   1.451       .  S
C703        C704   1.412       .  A
C703        C710   1.453       .  S
C704        C705   1.412       .  A
C705        C706   1.415       .  A
C705        C708   1.451       .  S
C706        C709   1.451       .  S
C707        N714   1.157       .  T
C708        N713   1.157       .  T
C709        N711   1.157       .  T
C710        N712   1.157       .  T
C715        C716   1.411       .  A
C716        C717   1.408   1_655  A
C716        C721   1.453       .  S
C717        C718   1.416       .  A
C717        C724   1.452       .  S
C719        C720   1.413   1_455  A
C719        C722   1.451       .  S
C720        C723   1.451       .  S
C721        N728   1.157       .  T
C722        N727   1.157       .  T
C723        N725   1.157       .  T
C724        N726   1.157       .  T
C729        C730   1.419       .  A
C729        C734   1.416       .  A
C730        C731   1.414       .  A
C730        C735   1.452       .  S
C731        C732   1.415       .  A
C731        C738   1.452       .  S
C732        C733   1.418       .  A
C733        C734   1.413       .  A
C733        C736   1.452       .  S
C734        C737   1.452       .  S
C735        N742   1.157       .  T
C736        N741   1.157       .  T
C737        N739   1.157       .  T
C738        N740   1.157       .  T
C743        C744   1.418       .  A
C743        C748   1.415       .  A
C744        C745   1.416       .  A
C744        C749   1.453       .  S
C745        C746   1.420       .  A
C745        C752   1.452       .  S
C746        C747   1.421       .  A
C747        C748   1.412       .  A
C747        C750   1.452       .  S
C748        C751   1.453       .  S
C749        N756   1.158       .  T
C750        N755   1.157       .  T
C751        N753   1.157       .  T
C752        N754   1.158       .  T
C757        C762   1.410       .  A
C758        C759   1.408       .  A
C758        C763   1.451       .  S
C759        C766   1.451       .  S
C760        C761   1.411       .  A
C761        C762   1.408       .  A
C761        C764   1.451       .  S
C762        C765   1.451       .  S
C763        N770   1.157       .  T
C764        N769   1.157       .  T
C765        N767   1.157       .  T
C766        N768   1.157       .  T
C771        C772   1.412       .  A
C772        C773   1.408       .  A
C772        C777   1.452       .  S
C773        C774   1.412       .  A
C773        C780   1.451       .  S
C775        C776   1.406       .  A
C775        C778   1.452       .  S
C776        C779   1.452       .  S
C777        N784   1.157       .  T
C778        N783   1.157       .  T
C779        N781   1.157       .  T
C780        N782   1.157       .  T
C785        C786   1.410       .  A
C785        C790   1.412       .  A
C786        C787   1.410   1_655  A
C786        C791   1.450       .  S
C787        C788   1.411   1_545  A
C787        C794   1.450       .  S
C788        C789   1.409       .  A
C789        C790   1.407   1_465  A
C789        C792   1.451       .  S
C790        C793   1.450       .  S
C791        N798   1.157       .  T
C792        N797   1.157       .  T
C793        N795   1.157       .  T
C794        N796   1.157       .  T
C799        C800   1.415       .  A
C799        C804   1.416       .  A
C800        C801   1.413       .  A
C800        C805   1.452       .  S
C801        C802   1.414       .  A
C801        C808   1.450       .  S
C802        C803   1.417       .  A
C803        C804   1.412       .  A
C803        C806   1.452       .  S
C804        C807   1.451       .  S
C805        N812   1.157       .  T
C806        N811   1.157       .  T
C807        N809   1.157       .  T
C808        N810   1.157       .  T
C813        C814   1.414       .  A
C814        C815   1.408   1_455  A
C814        C819   1.453       .  S
C815        C816   1.416       .  A
C815        C822   1.453       .  S
C817        C818   1.413   1_655  A
C817        C820   1.451       .  S
C818        C821   1.452       .  S
C819        N826   1.158       .  T
C820        N825   1.157       .  T
C821        N823   1.157       .  T
C822        N824   1.157       .  T
C827        C832   1.412       .  A
C828        C829   1.407       .  A
C828        C833   1.452       .  S
C829        C836   1.452       .  S
C830        C831   1.414       .  A
C831        C832   1.409       .  A
C831        C834   1.451       .  S
C832        C835   1.452       .  S
C833        N840   1.157       .  T
C834        N839   1.157       .  T
C835        N837   1.157       .  T
C836        N838   1.157       .  T
C841        C842   1.415       .  A
C841        C846   1.414       .  A
C842        C843   1.416       .  A
C842        C847   1.451       .  S
C843        C844   1.417       .  A
C843        C850   1.451       .  S
C844        C845   1.416       .  A
C845        C846   1.409       .  A
C845        C848   1.453       .  S
C846        C849   1.453       .  S
C847        N854   1.158       .  T
C848        N853   1.157       .  T
C849        N851   1.157       .  T
C850        N852   1.157       .  T
C855        C856   1.415       .  A
C855        C860   1.413       .  A
C856        C857   1.411       .  A
C856        C861   1.452       .  S
C857        C858   1.411       .  A
C857        C864   1.450       .  S
C858        C859   1.413       .  A
C859        C860   1.410       .  A
C859        C862   1.450       .  S
C860        C863   1.451       .  S
C861        N868   1.157       .  T
C862        N867   1.157       .  T
C863        N865   1.157       .  T
C864        N866   1.157       .  T
C869        C870   1.417       .  A
C869        C874   1.414       .  A
C870        C871   1.413       .  A
C870        C875   1.452       .  S
C871        C872   1.413       .  A
C871        C878   1.452       .  S
C872        C873   1.418       .  A
C873        C874   1.414       .  A
C873        C876   1.452       .  S
C874        C877   1.451       .  S
C875        N882   1.157       .  T
C876        N881   1.157       .  T
C877        N879   1.157       .  T
C878        N880   1.157       .  T
C883        C884   1.416       .  A
C883        C888   1.419       .  A
C884        C885   1.414       .  A
C884        C889   1.452       .  S
C885        C886   1.418       .  A
C885        C892   1.453       .  S
C886        C887   1.415       .  A
C887        C888   1.414       .  A
C887        C890   1.452       .  S
C888        C891   1.451       .  S
C889        N896   1.157       .  T
C890        N895   1.157       .  T
C891        N893   1.157       .  T
C892        N894   1.158       .  T
