geometry optimzed in LAMMPS
_audit_creation_date              2020-12-01 
_audit_creation_method            'lammps2cif' 
_symmetry_space_group_name_H-M    'P1' 
_symmetry_Int_Tables_number       1 
_symmetry_cell_setting            triclinic 
loop_ 
_symmetry_equiv_pos_as_xyz 
  x,y,z 
_cell_length_a                    36.99603963 
_cell_length_b                    37.34647395839472 
_cell_length_c                    26.292940109958277 
_cell_angle_alpha                 89.40085164189276 
_cell_angle_beta                  90.8015942309518 
_cell_angle_gamma                 121.93695324035839 
loop_ 
_atom_site_label 
_atom_site_type_symbol 
_atom_site_fract_x 
_atom_site_fract_y 
_atom_site_fract_z 
_atom_site_charge 
C1          C  0.56649766  0.86630510  0.00110621     0.06300
C2          C  0.56420802  0.88446466  0.45485256    -0.09900
C3          C  0.56135404  0.92048900  0.45550084     0.03800
C4          C  0.56113926  0.93831348  0.50147378    -0.08400
C5          C  0.56204206  0.92000014  0.04730601     0.06300
C6          C  0.56490129  0.88395520  0.04756812    -0.07800
H7          H  0.56377979  0.87025628  0.41892067     0.11800
H8          H  0.55794859  0.96563514  0.50157639     0.09400
H9          H  0.56501415  0.86933502  0.08335220     0.09200
C10         C  0.29486153  0.85590839  0.49696174     0.06300
C11         C  0.31466803  0.87584107  0.04285592    -0.09900
C12         C  0.35276402  0.91527299  0.04249898     0.03800
C13         C  0.37106041  0.93474345  0.49580231    -0.08400
C14         C  0.35136581  0.91485827  0.44960719     0.06300
C15         C  0.31315975  0.87539943  0.45038857    -0.07800
H16         H  0.30089747  0.86030497  0.07875725     0.11800
H17         H  0.40113508  0.96478173  0.49541431     0.09400
H18         H  0.29822471  0.85949602  0.41495341     0.09200
O19         O  0.52025792  0.00402590  0.37633655    -0.77000
O20         O  0.57862696  0.05815837  0.19175745    -0.77000
O21         O  0.52742040  0.97554994  0.19561222    -0.77000
O22         O  0.58647484  0.12040788  0.30258307    -0.77000
O23         O  0.52267101  0.00384281  0.12252084    -0.77100
O24         O  0.57745846  0.05832378  0.30874619    -0.77000
O25         O  0.58753593  0.12024919  0.19564700    -0.77000
O26         O  0.52653199  0.97593874  0.30491456    -0.77000
C27         C  0.52872703  0.97931472  0.35387354     1.12700
C28         C  0.59941332  0.09642179  0.17915910     1.12600
C29         C  0.53046572  0.97890375  0.14666917     1.12700
C30         C  0.59813163  0.09660229  0.32090662     1.12600
O31         O  0.52116154  0.08020422  0.35842722    -0.77000
O32         O  0.45738206  0.00997017  0.15912239    -0.77100
O33         O  0.43769542  0.95115669  0.29902207    -0.77000
O34         O  0.50320834  0.10623639  0.19600247    -0.77000
O35         O  0.52355601  0.08012505  0.13659500    -0.77100
O36         O  0.45547627  0.00979860  0.33447370    -0.77000
O37         O  0.50218186  0.10644212  0.29612597    -0.77000
O38         O  0.43863732  0.95125170  0.19609688    -0.77000
Co39       Co  0.51516616  0.03149080  0.31794038     1.51500
Co40       Co  0.51659364  0.03141268  0.17912202     1.51700
Co41       Co  0.48556213  0.97317244  0.24878484     1.51600
Co42       Co  0.54243870  0.10818650  0.24763905     1.51500
O43         O  0.50604979  0.04186005  0.24787138    -1.38900
C44         C  0.50697779  0.10284958  0.34267250     1.12600
C45         C  0.43126798  0.97153793  0.16365450     1.12700
C46         C  0.42958116  0.97130402  0.32991522     1.12600
C47         C  0.50924530  0.10289289  0.15009708     1.12600
C48         C  0.48599120  0.22227999  0.99538832     0.06300
C49         C  0.48649726  0.20393243  0.44899429    -0.09900
C50         C  0.48922710  0.16781688  0.44959412     0.03800
C51         C  0.49123321  0.15021754  0.49524612    -0.08400
C52         C  0.49133378  0.16825593  0.04091983     0.06300
C53         C  0.48865510  0.20436826  0.04166425    -0.07800
H54         H  0.48533157  0.21783419  0.41309715     0.11800
H55         H  0.49385709  0.12255733  0.49521176     0.09400
H56         H  0.48908099  0.21855588  0.07760265     0.09200
C57         C  0.72823436  0.19641938  0.00057283     0.06300
C58         C  0.70774824  0.17770660  0.45437171    -0.09900
C59         C  0.66741233  0.14035710  0.45381199     0.03800
C60         C  0.64752262  0.12166270  0.50057134    -0.08400
C61         C  0.66803537  0.14022266  0.04735490     0.06300
C62         C  0.70839075  0.17758640  0.04680623    -0.07800
H63         H  0.72297969  0.19262020  0.41875326     0.11800
H64         H  0.61603768  0.09328122  0.50054898     0.09400
H65         H  0.72411029  0.19241644  0.08241847     0.09200
O66         O  0.05917794  0.59004580  0.30408056    -0.77000
O67         O  0.00271043  0.53739303  0.12299401    -0.77000
O68         O  0.11900225  0.59345294  0.19640406    -0.77000
O69         O  0.97606593  0.54545731  0.30391293    -0.77000
O70         O  0.05868397  0.58959691  0.19332030    -0.77100
O71         O  0.00493995  0.53947927  0.37623260    -0.77000
O72         O  0.97537748  0.54492605  0.19440244    -0.77000
O73         O  0.11961552  0.59420642  0.30308092    -0.77000
C74         C  0.09731745  0.60837465  0.31824281     1.12700
C75         C  0.98003689  0.54849820  0.14559457     1.12600
C76         C  0.09668945  0.60748401  0.17949832     1.12700
C77         C  0.98204148  0.55036367  0.35254060     1.12600
O78         O  0.00192273  0.46970621  0.34034722    -0.77000
O79         O  0.07448702  0.53027746  0.14032812    -0.77100
O80         O  0.09915140  0.50835507  0.30146605    -0.77000
O81         O  0.94343016  0.45504467  0.19877058    -0.77000
O82         O  0.00086235  0.46860339  0.16216944    -0.77100
O83         O  0.07615217  0.53183590  0.36091011    -0.77000
O84         O  0.94420463  0.45532995  0.30182880    -0.77000
O85         O  0.09825150  0.50759120  0.20145941    -0.77000
Co86       Co  0.02827051  0.52878835  0.31895463     1.51500
Co87       Co  0.02735333  0.52794553  0.18119760     1.51700
Co88       Co  0.10382454  0.54877271  0.25060337     1.51600
Co89       Co  0.96937283  0.50233315  0.24985971     1.51500
O90         O  0.03662719  0.51621493  0.25045070    -1.38900
C91         C  0.96275363  0.44591117  0.33480420     1.12600
C92         C  0.09521556  0.51367453  0.15521944     1.12700
C93         C  0.09645403  0.51475438  0.34740143     1.12600
C94         C  0.96168830  0.44522948  0.16690153     1.12600
C95         C  0.21479268  0.49137783  0.00469569     0.06300
C96         C  0.19602877  0.49182028  0.45785272    -0.09900
C97         C  0.15831903  0.49226374  0.45750183     0.03800
C98         C  0.13941668  0.49181098  0.00267809    -0.08400
C99         C  0.15823090  0.49253357  0.04876976     0.06300
C100        C  0.19595418  0.49219499  0.05045791    -0.07800
H101        H  0.21106135  0.49279910  0.42233385     0.11800
H102        H  0.11068399  0.49302539  0.50194210     0.09400
H103        H  0.21087988  0.49342740  0.08671916     0.09200
C104        C  0.84360804  0.30867956  0.00019222     0.06300
C105        C  0.86331752  0.32811523  0.45401916    -0.09900
C106        C  0.90209365  0.36720111  0.45404396     0.03800
C107        C  0.92113338  0.38664255  0.50063945    -0.08400
C108        C  0.90156959  0.36746454  0.04694735     0.06300
C109        C  0.86278508  0.32849550  0.04652038    -0.07800
H110        H  0.84822778  0.31316287  0.41822830     0.11800
H111        H  0.95074884  0.41711703  0.50083891     0.09400
H112        H  0.84732057  0.31384155  0.08211815     0.09200
C113        C  0.87563989  0.59363107  0.99501977     0.06300
C114        C  0.89512224  0.59378728  0.44938539    -0.09900
C115        C  0.93263564  0.59306087  0.45106688     0.03800
C116        C  0.95086790  0.59294124  0.99762890    -0.08400
C117        C  0.93090143  0.59107996  0.04285129     0.06300
C118        C  0.89335688  0.59173655  0.04191099    -0.07800
H119        H  0.88026875  0.59263135  0.41307872     0.11800
H120        H  0.97895065  0.59062839  0.49858444     0.09400
H121        H  0.87717817  0.58909265  0.07711734     0.09200
C122        C  0.18914587  0.73688727  0.99886580     0.06300
C123        C  0.17210167  0.71570944  0.04491684    -0.09900
C124        C  0.13766211  0.67378117  0.04516780     0.03800
C125        C  0.12038383  0.65298034  0.49826827    -0.08400
C126        C  0.13756112  0.67445359  0.45175643     0.06300
C127        C  0.17181342  0.71635717  0.45259879    -0.07800
H128        H  0.18601037  0.73174858  0.08061564     0.11800
H129        H  0.09422664  0.62034487  0.49796487     0.09400
H130        H  0.18551197  0.73286033  0.41712441     0.09200
O131        O  0.55537991  0.51810800  0.13388583    -0.77000
O132        O  0.48682715  0.53082401  0.32519169    -0.77000
O133        O  0.51306843  0.46769183  0.29136494    -0.77000
O134        O  0.46932607  0.52326975  0.20718159    -0.77000
O135        O  0.54322560  0.51076153  0.35435570    -0.77100
O136        O  0.51294297  0.55788096  0.14330819    -0.77000
O137        O  0.46464112  0.56907753  0.28703231    -0.77000
O138        O  0.51950538  0.46995002  0.19251112    -0.77000
C139        C  0.52929971  0.48001272  0.14701810     1.12700
C140        C  0.46085396  0.54393229  0.32242842     1.12600
C141        C  0.51891240  0.47375506  0.33804638     1.12700
C142        C  0.47574054  0.53216423  0.15996336     1.12600
O143        O  0.58639709  0.62866168  0.19423830    -0.77000
O144        O  0.61464917  0.58647379  0.31519874    -0.77100
O145        O  0.61104309  0.52149756  0.19604068    -0.77000
O146        O  0.54879669  0.61632778  0.30859717    -0.77000
O147        O  0.55672270  0.58672904  0.37782242    -0.77100
O148        O  0.62856998  0.58700360  0.18642757    -0.77000
O149        O  0.52165316  0.61230257  0.20778280    -0.77000
O150        O  0.60655950  0.52422813  0.30279027    -0.77000
Co151      Co  0.57068393  0.57262546  0.16932223     1.51500
Co152      Co  0.55254667  0.56121850  0.31463594     1.51700
Co153      Co  0.56172928  0.49888466  0.24587844     1.51600
Co154      Co  0.50982292  0.56581250  0.25764666     1.51500
O155        O  0.55138769  0.54762670  0.24052964    -1.38900
C156        C  0.55775732  0.63686039  0.18813715     1.12600
C157        C  0.62634327  0.56063678  0.32363702     1.12700
C158        C  0.63541381  0.55814022  0.17732318     1.12600
C159        C  0.55660155  0.61730844  0.35718968     1.12600
C160        C  0.48272590  0.33047346  0.99473136     0.06300
C161        C  0.48785817  0.35234190  0.04024416    -0.09900
C162        C  0.48946508  0.39077093  0.03861306     0.03800
C163        C  0.48539732  0.40684162  0.99262595    -0.08400
C164        C  0.48206294  0.38641663  0.44746287     0.06300
C165        C  0.48034828  0.34796770  0.44806053    -0.07800
H166        H  0.49188137  0.34030016  0.07616800     0.11800
H167        H  0.48817722  0.43731256  0.99162396     0.09400
H168        H  0.47882995  0.33267451  0.41256826     0.09200
C169        C  0.32945786  0.49937869  0.00193147     0.06300
C170        C  0.35154817  0.49943803  0.04594520    -0.09900
C171        C  0.39261411  0.50625842  0.04223132     0.03800
C172        C  0.41129639  0.51293065  0.99400881    -0.08400
C173        C  0.38923225  0.51285997  0.44991050     0.06300
C174        C  0.34834527  0.50596861  0.45412425    -0.07800
H175        H  0.33721070  0.49507716  0.08296112     0.11800
H176        H  0.44327895  0.51900395  0.99089152     0.09400
H177        H  0.33152192  0.50650157  0.42028294     0.09200
C178        C  0.76001625  0.58355838  0.99582515     0.06300
C179        C  0.74081149  0.57936948  0.04294360    -0.09900
C180        C  0.70003787  0.57313510  0.04536333     0.03800
C181        C  0.67847372  0.57126958  0.99966866    -0.11400
C182        C  0.69773613  0.57561517  0.45203607     0.06300
C183        C  0.73852357  0.58171882  0.45060116    -0.07800
H184        H  0.75750634  0.58062141  0.07776595     0.11800
H185        H  0.64683940  0.56622990  0.00115624     0.09400
H186        H  0.75341595  0.58468310  0.41426974     0.09200
C187        C  0.57084063  0.75870882  0.00677149     0.06300
C188        C  0.56999671  0.74202462  0.05519335    -0.09900
C189        C  0.56914179  0.70416563  0.06022098     0.03800
C190        C  0.56942894  0.68308650  0.01633555    -0.08400
C191        C  0.57035101  0.69949532  0.46760951     0.06300
C192        C  0.57107417  0.73741733  0.46302416    -0.07800
H193        H  0.56939751  0.75818671  0.08889566     0.11800
H194        H  0.56828319  0.65355083  0.02009207     0.09400
H195        H  0.57123955  0.74999727  0.42563545     0.09200
C196        C  0.40930171  0.52176178  0.40061032    -0.10100
C197        C  0.42940117  0.53087525  0.36162449    -0.11700
C198        C  0.44079279  0.51636465  0.12368159    -0.10100
C199        C  0.41688308  0.50944494  0.08785098    -0.11700
C200        C  0.56858426  0.67609576  0.42275171    -0.10100
C201        C  0.56483500  0.65232842  0.38903147    -0.11700
C202        C  0.56293938  0.66675507  0.14914398    -0.10100
C203        C  0.56639336  0.68591462  0.11014207    -0.11700
C204        C  0.65609860  0.56896103  0.36514797    -0.10100
C205        C  0.67568116  0.57282043  0.40439740    -0.11700
C206        C  0.66308949  0.56391317  0.13532384    -0.10100
C207        C  0.68058241  0.56822365  0.09487518    -0.11700
C208        C  0.50012855  0.43824699  0.37150684    -0.10100
C209        C  0.48822300  0.41010041  0.40192631    -0.11700
C210        C  0.50086614  0.41788362  0.08166915    -0.10100
C211        C  0.51325199  0.44655428  0.11106862    -0.11700
C212        C  0.83563210  0.59168487  0.99381578    -0.10100
C213        C  0.80146249  0.58864354  0.99403449    -0.11700
C214        C  0.25438780  0.49241325  0.00575638    -0.10100
C215        C  0.28820577  0.49465667  0.00543041    -0.11700
C216        C  0.94619127  0.58128337  0.08798142    -0.10100
C217        C  0.96171726  0.56802670  0.11721461    -0.11700
C218        C  0.96470508  0.57094035  0.37930177    -0.10100
C219        C  0.94915433  0.58441968  0.40710909    -0.11700
C220        C  0.92041894  0.38904670  0.09454428    -0.10100
C221        C  0.93781941  0.41129898  0.13122687    -0.11700
C222        C  0.92137428  0.38889367  0.40664638    -0.10100
C223        C  0.93909000  0.41163892  0.37037345    -0.11700
C224        C  0.11828530  0.50417214  0.12093079    -0.10100
C225        C  0.13909719  0.49754376  0.09249562    -0.11700
C226        C  0.11913811  0.50470120  0.38299327    -0.10100
C227        C  0.13949670  0.49750499  0.41260390    -0.11700
C228        C  0.11079004  0.63479868  0.13502635    -0.10100
C229        C  0.12183832  0.65244525  0.09392700    -0.11700
C230        C  0.11147554  0.63621027  0.36176308    -0.10100
C231        C  0.12212736  0.65373100  0.40276677    -0.11700
C232        C  0.76919992  0.23570544  0.00044416    -0.10100
C233        C  0.80319282  0.26883241  0.00014706    -0.11700
C234        C  0.48396052  0.25994339  0.99551487    -0.10100
C235        C  0.48293943  0.29182109  0.99547492    -0.11700
C236        C  0.64714898  0.12282622  0.09607143    -0.10100
C237        C  0.62842771  0.11050366  0.13636150    -0.11700
C238        C  0.64599606  0.12306868  0.40502880    -0.10100
C239        C  0.62707790  0.11081668  0.36448417    -0.11700
C240        C  0.50176119  0.12733796  0.11457493    -0.10100
C241        C  0.49621536  0.14890869  0.08534567    -0.11700
C242        C  0.49833582  0.12692050  0.37649769    -0.10100
C243        C  0.49270036  0.14833999  0.40507331    -0.11700
C244        C  0.25674331  0.81453206  0.99785548    -0.10100
C245        C  0.22553358  0.77938609  0.99881931    -0.11700
C246        C  0.39708015  0.95043509  0.12703105    -0.10100
C247        C  0.37474822  0.93426305  0.08985955    -0.11700
C248        C  0.37235977  0.93348331  0.40184602    -0.10100
C249        C  0.39482654  0.94991783  0.36517402    -0.11700
C250        C  0.56873005  0.82872388  0.00102429    -0.10100
C251        C  0.57011078  0.79703118  0.00240955    -0.11700
C252        C  0.54563230  0.95617263  0.11998173    -0.10100
C253        C  0.55536056  0.93723652  0.09218276    -0.11700
C254        C  0.55400949  0.93813779  0.41079065    -0.10100
C255        C  0.54394555  0.95699706  0.38246071    -0.11700
C256        C  0.56649691  0.86630468  0.50110547     0.06300
C257        C  0.56420893  0.88446507  0.95485317    -0.09900
C258        C  0.56135494  0.92048945  0.95550127     0.03800
C259        C  0.56113995  0.93831389  0.00147418    -0.08400
C260        C  0.56204146  0.91999975  0.54730553     0.06300
C261        C  0.56490056  0.88395471  0.54756748    -0.07800
H262        H  0.56378071  0.87025662  0.91892141     0.11800
H263        H  0.55794908  0.96563541  0.00157671     0.09400
H264        H  0.56501351  0.86933450  0.58335150     0.09200
C265        C  0.29486112  0.85590863  0.99696166     0.06300
C266        C  0.31466838  0.87584076  0.54285607    -0.09900
C267        C  0.35276428  0.91527278  0.54249921     0.03800
C268        C  0.37106021  0.93474355  0.99580205    -0.08400
C269        C  0.35136559  0.91485830  0.94960697     0.06300
C270        C  0.31315945  0.87539952  0.95038844    -0.07800
H271        H  0.30089785  0.86030456  0.57875732     0.11800
H272        H  0.40113492  0.96478175  0.99541402     0.09400
H273        H  0.29822446  0.85949602  0.91495332     0.09200
O274        O  0.52025845  0.00402591  0.87633664    -0.77000
O275        O  0.57862718  0.05815830  0.69175749    -0.77000
O276        O  0.52742079  0.97555001  0.69561217    -0.77000
O277        O  0.58647505  0.12040779  0.80258302    -0.77000
O278        O  0.52267132  0.00384287  0.62252081    -0.77100
O279        O  0.57745886  0.05832377  0.80874622    -0.77000
O280        O  0.58753609  0.12024909  0.69564694    -0.77000
O281        O  0.52653254  0.97593878  0.80491462    -0.77000
C282        C  0.52872758  0.97931474  0.85387361     1.12700
C283        C  0.59941345  0.09642168  0.67915899     1.12600
C284        C  0.53046604  0.97890381  0.64666910     1.12700
C285        C  0.59813189  0.09660227  0.82090667     1.12600
O286        O  0.52116175  0.08020398  0.85842727    -0.77000
O287        O  0.45738234  0.00996993  0.65912247    -0.77100
O288        O  0.43769589  0.95115640  0.79902231    -0.77000
O289        O  0.50320854  0.10623638  0.69600257    -0.77000
O290        O  0.52355610  0.08012496  0.63659506    -0.77100
O291        O  0.45547663  0.00979831  0.83447384    -0.77000
O292        O  0.50218206  0.10644191  0.79612605    -0.77000
O293        O  0.43863773  0.95125148  0.69609703    -0.77000
Co294      Co  0.51516654  0.03149065  0.81794043     1.51500
Co295      Co  0.51659389  0.03141261  0.67912204     1.51700
Co296      Co  0.48556255  0.97317231  0.74878494     1.51600
Co297      Co  0.54243889  0.10818637  0.74763907     1.51500
O298        O  0.50605004  0.04185989  0.74787145    -1.38900
C299        C  0.50697799  0.10284935  0.84267257     1.12600
C300        C  0.43126834  0.97153767  0.66365464     1.12700
C301        C  0.42958153  0.97130372  0.82991536     1.12600
C302        C  0.50924543  0.10289284  0.65009717     1.12600
C303        C  0.48599172  0.22228041  0.49538884     0.06300
C304        C  0.48649698  0.20393201  0.94899389    -0.09900
C305        C  0.48922697  0.16781655  0.94959394     0.03800
C306        C  0.49123301  0.15021727  0.99524600    -0.08400
C307        C  0.49133430  0.16825626  0.54092006     0.06300
C308        C  0.48865578  0.20436867  0.54166466    -0.07800
H309        H  0.48533136  0.21783372  0.91309667     0.11800
H310        H  0.49385702  0.12255714  0.99521179     0.09400
H311        H  0.48908194  0.21855635  0.57760313     0.09200
C312        C  0.72823498  0.19641866  0.50057266     0.06300
C313        C  0.70774771  0.17770721  0.95437190    -0.09900
C314        C  0.66741208  0.14035739  0.95381223     0.03800
C315        C  0.64752247  0.12166286  0.00057158    -0.08400
C316        C  0.66803558  0.14022236  0.54735470     0.06300
C317        C  0.70839120  0.17758583  0.54680604    -0.07800
H318        H  0.72297908  0.19262083  0.91875342     0.11800
H319        H  0.61603770  0.09328120  0.00054922     0.09400
H320        H  0.72411079  0.19241582  0.58241836     0.09200
O321        O  0.05917735  0.59004610  0.80408053    -0.77000
O322        O  0.00270982  0.53739343  0.62299383    -0.77000
O323        O  0.11900165  0.59345307  0.69640402    -0.77000
O324        O  0.97606542  0.54545787  0.80391271    -0.77000
O325        O  0.05868347  0.58959727  0.69332004    -0.77100
O326        O  0.00493928  0.53947958  0.87623235    -0.77000
O327        O  0.97537700  0.54492662  0.69440228    -0.77000
O328        O  0.11961481  0.59420647  0.80308082    -0.77000
C329        C  0.09731686  0.60837482  0.81824274     1.12700
C330        C  0.98003638  0.54849872  0.64559440     1.12600
C331        C  0.09668897  0.60748426  0.67949820     1.12700
C332        C  0.98204088  0.55036408  0.85254042     1.12600
O333        O  0.00192187  0.46970648  0.84034684    -0.77000
O334        O  0.07448633  0.53027765  0.64032805    -0.77100
O335        O  0.09915024  0.50835491  0.80146600    -0.77000
O336        O  0.94342946  0.45504499  0.69877056    -0.77000
O337        O  0.00086159  0.46860376  0.66216920    -0.77100
O338        O  0.07615136  0.53183601  0.86091010    -0.77000
O339        O  0.94420376  0.45533035  0.80182859    -0.77000
O340        O  0.09825069  0.50759123  0.70145937    -0.77000
Co341      Co  0.02826982  0.52878864  0.81895443     1.51500
Co342      Co  0.02735269  0.52794589  0.68119740     1.51700
Co343      Co  0.10382375  0.54877275  0.75060330     1.51600
Co344      Co  0.96937217  0.50233360  0.74985954     1.51500
O345        O  0.03662646  0.51621524  0.75045050    -1.38900
C346        C  0.96275276  0.44591150  0.83480389     1.12600
C347        C  0.09521476  0.51367459  0.65521939     1.12700
C348        C  0.09645310  0.51475438  0.84740138     1.12600
C349        C  0.96168757  0.44522979  0.66690148     1.12600
C350        C  0.21479246  0.49137740  0.50469723     0.06300
C351        C  0.19602856  0.49182064  0.95785149    -0.09900
C352        C  0.15831892  0.49226425  0.95750123     0.03800
C353        C  0.13941628  0.49181020  0.50267840    -0.08400
C354        C  0.15823019  0.49253296  0.54877035     0.06300
C355        C  0.19595351  0.49219447  0.55045913    -0.07800
H356        H  0.21106069  0.49279923  0.92233237     0.11800
H357        H  0.11068450  0.49302635  0.00194226     0.09400
H358        H  0.21087900  0.49342702  0.58672059     0.09200
C359        C  0.84360852  0.30867907  0.50019218     0.06300
C360        C  0.86331687  0.32811570  0.95401912    -0.09900
C361        C  0.90209322  0.36720137  0.95404378     0.03800
C362        C  0.92113338  0.38664260  0.00063923    -0.08400
C363        C  0.90156947  0.36746444  0.54694750     0.06300
C364        C  0.86278518  0.32849516  0.54652041    -0.07800
H365        H  0.84822682  0.31316346  0.91822829     0.11800
H366        H  0.95074903  0.41711686  0.00083857     0.09400
H367        H  0.84732049  0.31384116  0.58211809     0.09200
C368        C  0.87563969  0.59363084  0.49501838     0.06300
C369        C  0.89512228  0.59378770  0.94938654    -0.09900
C370        C  0.93263553  0.59306102  0.95106762     0.03800
C371        C  0.95086792  0.59294148  0.49762839    -0.08400
C372        C  0.93090127  0.59108034  0.54285060     0.06300
C373        C  0.89335659  0.59173666  0.54190983    -0.07800
H374        H  0.88026876  0.59263208  0.91308002     0.11800
H375        H  0.97895053  0.59062801  0.99858460     0.09400
H376        H  0.87717774  0.58909291  0.57711604     0.09200
C377        C  0.18914621  0.73688707  0.49886576     0.06300
C378        C  0.17210188  0.71570937  0.54491680    -0.09900
C379        C  0.13766211  0.67378119  0.54516776     0.03800
C380        C  0.12038382  0.65298034  0.99826824    -0.08400
C381        C  0.13756096  0.67445375  0.95175638     0.06300
C382        C  0.17181309  0.71635738  0.95259882    -0.07800
H383        H  0.18601053  0.73174852  0.58061557     0.11800
H384        H  0.09422681  0.62034486  0.99796478     0.09400
H385        H  0.18551159  0.73286065  0.91712441     0.09200
O386        O  0.55538117  0.51810886  0.63388558    -0.77000
O387        O  0.48682870  0.53082508  0.82519154    -0.77000
O388        O  0.51306973  0.46769283  0.79136481    -0.77000
O389        O  0.46932752  0.52327070  0.70718160    -0.77000
O390        O  0.54322716  0.51076256  0.85435547    -0.77100
O391        O  0.51294418  0.55788180  0.64330797    -0.77000
O392        O  0.46464272  0.56907863  0.78703212    -0.77000
O393        O  0.51950658  0.46995108  0.69251100    -0.77000
C394        C  0.52930084  0.48001364  0.64701795     1.12700
C395        C  0.46085549  0.54393336  0.82242820     1.12600
C396        C  0.51891385  0.47375609  0.83804624     1.12700
C397        C  0.47574180  0.53216511  0.65996335     1.12600
O398        O  0.58639834  0.62866259  0.69423791    -0.77000
O399        O  0.61465075  0.58647483  0.81519853    -0.77100
O400        O  0.61104439  0.52149858  0.69604058    -0.77000
O401        O  0.54879811  0.61632880  0.80859716    -0.77000
O402        O  0.55672415  0.58672999  0.87782231    -0.77100
O403        O  0.62857126  0.58700460  0.68642704    -0.77000
O404        O  0.52165449  0.61230354  0.70778275    -0.77000
O405        O  0.60656090  0.52422909  0.80279007    -0.77000
Co406      Co  0.57068518  0.57262637  0.66932187     1.51500
Co407      Co  0.55254821  0.56121956  0.81463576     1.51700
Co408      Co  0.56173060  0.49888566  0.74587828     1.51600
Co409      Co  0.50982442  0.56581353  0.75764657     1.51500
O410        O  0.55138919  0.54762777  0.74052944    -1.38900
C411        C  0.55775854  0.63686129  0.68813688     1.12600
C412        C  0.62634471  0.56063771  0.82363692     1.12700
C413        C  0.63541506  0.55814117  0.67732288     1.12600
C414        C  0.55660288  0.61730937  0.85718969     1.12600
C415        C  0.48272600  0.33047362  0.49473201     0.06300
C416        C  0.48785870  0.35234242  0.54024465    -0.09900
C417        C  0.48946514  0.39077122  0.53861335     0.03800
C418        C  0.48539645  0.40684127  0.49262623    -0.08400
C419        C  0.48206411  0.38641727  0.94746248     0.06300
C420        C  0.48034903  0.34796814  0.94805993    -0.07800
H421        H  0.49188264  0.34030115  0.57616841     0.11800
H422        H  0.48817601  0.43731207  0.49162404     0.09400
H423        H  0.47883095  0.33267519  0.91256753     0.09200
C424        C  0.32945785  0.49937861  0.50193315     0.06300
C425        C  0.35154859  0.49943818  0.54594653    -0.09900
C426        C  0.39261445  0.50625843  0.54223207     0.03800
C427        C  0.41129619  0.51293027  0.49400927    -0.08400
C428        C  0.38923289  0.51286062  0.94990970     0.06300
C429        C  0.34834581  0.50596904  0.95412286    -0.07800
H430        H  0.33721153  0.49507755  0.58296272     0.11800
H431        H  0.44327875  0.51900352  0.49089149     0.09400
H432        H  0.33152277  0.50650218  0.92028128     0.09200
C433        C  0.76001602  0.58355800  0.49582384     0.06300
C434        C  0.74081153  0.57936930  0.54294245    -0.09900
C435        C  0.70003803  0.57313515  0.54536250     0.03800
C436        C  0.67847360  0.57126947  0.49966802    -0.11400
C437        C  0.69773654  0.57561548  0.95203686     0.06300
C438        C  0.73852403  0.58171925  0.95060228    -0.07800
H439        H  0.75750652  0.58062128  0.57776472     0.11800
H440        H  0.64683935  0.56622987  0.50115586     0.09400
H441        H  0.75341660  0.58468362  0.91427102     0.09200
C442        C  0.57084051  0.75870880  0.50677075     0.06300
C443        C  0.56999713  0.74202500  0.55519272    -0.09900
C444        C  0.56914225  0.70416603  0.56022052     0.03800
C445        C  0.56942901  0.68308662  0.51633516    -0.08400
C446        C  0.57035143  0.69949557  0.96760997     0.06300
C447        C  0.57107475  0.73741766  0.96302482    -0.07800
H448        H  0.56939823  0.75818732  0.58889496     0.11800
H449        H  0.56828328  0.65355094  0.52009180     0.09400
H450        H  0.57124066  0.74999796  0.92563613     0.09200
C451        C  0.40930289  0.52176274  0.90060979    -0.10100
C452        C  0.42940259  0.53087629  0.86162414    -0.11700
C453        C  0.44079390  0.51636540  0.62368180    -0.10100
C454        C  0.41688390  0.50944536  0.58785141    -0.11700
C455        C  0.56858512  0.67609633  0.92275204    -0.10100
C456        C  0.56483615  0.65232924  0.88903163    -0.11700
C457        C  0.56294043  0.66675584  0.64914364    -0.10100
C458        C  0.56639419  0.68591528  0.61014170    -0.11700
C459        C  0.65609968  0.56896169  0.86514826    -0.10100
C460        C  0.67568188  0.57282086  0.90439795    -0.11700
C461        C  0.66309044  0.56391385  0.63532338    -0.10100
C462        C  0.68058294  0.56822404  0.59487450    -0.11700
C463        C  0.50013014  0.43824805  0.87150675    -0.10100
C464        C  0.48822457  0.41010139  0.90192612    -0.11700
C465        C  0.50086670  0.41788433  0.58166914    -0.10100
C466        C  0.51325281  0.44655511  0.61106852    -0.11700
C467        C  0.83563192  0.59168465  0.49381400    -0.10100
C468        C  0.80146228  0.58864323  0.49403283    -0.11700
C469        C  0.25438776  0.49241311  0.50575853    -0.10100
C470        C  0.28820577  0.49465659  0.50543258    -0.11700
C471        C  0.94619103  0.58128402  0.58798103    -0.10100
C472        C  0.96171689  0.56802733  0.61721442    -0.11700
C473        C  0.96470457  0.57094073  0.87930178    -0.10100
C474        C  0.94915404  0.58442004  0.90710951    -0.11700
C475        C  0.92041842  0.38904678  0.59454443    -0.10100
C476        C  0.93781867  0.41129918  0.63122697    -0.11700
C477        C  0.92137366  0.38889402  0.90664617    -0.10100
C478        C  0.93908919  0.41163925  0.87037317    -0.11700
C479        C  0.11828441  0.50417209  0.62093074    -0.10100
C480        C  0.13909628  0.49754349  0.59249580    -0.11700
C481        C  0.11913738  0.50470133  0.88299311    -0.10100
C482        C  0.13949618  0.49750529  0.91260358    -0.11700
C483        C  0.11078970  0.63479893  0.63502628    -0.10100
C484        C  0.12183810  0.65244542  0.59392692    -0.11700
C485        C  0.11147514  0.63621050  0.86176298    -0.10100
C486        C  0.12212714  0.65373125  0.90276666    -0.11700
C487        C  0.76920059  0.23570471  0.50044392    -0.10100
C488        C  0.80319345  0.26883175  0.50014682    -0.11700
C489        C  0.48396113  0.25994385  0.49551560    -0.10100
C490        C  0.48293995  0.29182149  0.49547570    -0.11700
C491        C  0.64714905  0.12282600  0.59607120    -0.10100
C492        C  0.62842769  0.11050345  0.63636123    -0.11700
C493        C  0.64599594  0.12306873  0.90502910    -0.10100
C494        C  0.62707791  0.11081670  0.86448442    -0.11700
C495        C  0.50176152  0.12733806  0.61457507    -0.10100
C496        C  0.49621595  0.14890899  0.58534583    -0.11700
C497        C  0.49833601  0.12692023  0.87649776    -0.10100
C498        C  0.49270044  0.14833968  0.90507330    -0.11700
C499        C  0.25674375  0.81453179  0.49785546    -0.10100
C500        C  0.22553400  0.77938584  0.49881925    -0.11700
C501        C  0.39708045  0.95043478  0.62703129    -0.10100
C502        C  0.37474848  0.93426274  0.58985983    -0.11700
C503        C  0.37235971  0.93348314  0.90184579    -0.10100
C504        C  0.39482670  0.94991756  0.86517392    -0.11700
C505        C  0.56872954  0.82872362  0.50102333    -0.10100
C506        C  0.57011044  0.79703101  0.50240859    -0.11700
C507        C  0.54563256  0.95617268  0.61998160    -0.10100
C508        C  0.55536051  0.93723644  0.59218242    -0.11700
C509        C  0.55401025  0.93813806  0.91079094    -0.10100
C510        C  0.54394616  0.95699714  0.88246083    -0.11700
loop_ 
_geom_bond_atom_site_label_1 
_geom_bond_atom_site_label_2 
_geom_bond_distance 
_geom_bond_site_symmetry_2 
_ccdc_geom_bond_type 
C1            C6   1.411       .  A
C1          C257   1.410   1_554  A
C1          C250   1.449       .  S
C2            C3   1.404       .  A
C2          C256   1.410       .  A
C2            H7   1.084       .  S
C3            C4   1.388       .  A
C3          C254   1.433       .  S
C4          C260   1.388       .  A
C4            H8   1.087       .  S
C5            C6   1.405       .  A
C5          C259   1.388       .  A
C5          C253   1.435       .  S
C6            H9   1.084       .  S
C10          C15   1.404       .  A
C10         C266   1.401       .  A
C10         C499   1.439       .  S
C11          C12   1.400       .  A
C11         C265   1.401   1_554  A
C11          H16   1.085       .  S
C12         C268   1.407   1_554  A
C12         C247   1.447       .  S
C13          C14   1.407       .  A
C13         C267   1.407       .  A
C13          H17   1.084       .  S
C14          C15   1.402       .  A
C14         C248   1.450       .  S
C15          H18   1.084       .  S
O19          C27   1.273   1_545  A
O19         Co39   1.900       .  S
O20          C28   1.256       .  A
O20         Co40   1.984       .  S
O21          C29   1.292       .  A
O21         Co41   2.067       .  S
O22          C30   1.265       .  A
O22         Co42   2.027       .  S
O23          C29   1.273   1_545  A
O23         Co40   1.900       .  S
O24          C30   1.256       .  A
O24         Co39   1.985       .  S
O25          C28   1.265       .  A
O25         Co42   2.028       .  S
O26          C27   1.292       .  A
O26         Co41   2.064       .  S
C27         C255   1.431       .  S
C28         C237   1.456       .  S
C29         C252   1.434       .  S
C30         C239   1.455       .  S
O31          C44   1.272       .  A
O31         Co39   2.025       .  S
O32          C45   1.241   1_545  A
O32         Co40   1.959       .  S
O33          C46   1.255       .  A
O33         Co41   2.015       .  S
O34          C47   1.250       .  A
O34         Co42   1.947       .  S
O35          C47   1.272       .  A
O35         Co40   2.024       .  S
O36          C46   1.242   1_545  A
O36         Co39   1.962       .  S
O37          C44   1.250       .  A
O37         Co42   1.948       .  S
O38          C45   1.255       .  A
O38         Co41   2.014       .  S
Co39         O43   1.940       .  S
Co40         O43   1.941       .  S
Co41         O43   2.258   1_565  S
Co42         O43   2.102       .  S
C44         C242   1.425       .  S
C45         C246   1.441       .  S
C46         C249   1.443       .  S
C47         C240   1.423       .  S
C48          C53   1.410   1_556  A
C48         C304   1.411       .  A
C48         C234   1.448       .  S
C49          C50   1.405       .  A
C49         C303   1.411       .  A
C49          H54   1.084       .  S
C50          C51   1.382       .  A
C50         C243   1.427       .  S
C51         C307   1.382       .  A
C51          H55   1.087       .  S
C52          C53   1.404       .  A
C52         C306   1.382   1_554  A
C52         C241   1.426       .  S
C53          H56   1.084       .  S
C57          C62   1.404       .  A
C57         C313   1.404   1_554  A
C57         C232   1.448       .  S
C58          C59   1.404       .  A
C58         C312   1.404       .  A
C58          H63   1.085       .  S
C59          C60   1.416       .  A
C59         C238   1.462       .  S
C60         C316   1.416       .  A
C60          H64   1.084       .  S
C61          C62   1.404       .  A
C61         C315   1.416       .  A
C61         C236   1.463       .  S
C62          H65   1.085       .  S
O66          C74   1.252       .  A
O66         Co86   1.980       .  S
O67          C75   1.271   1_455  A
O67         Co87   1.894       .  S
O68          C76   1.263       .  A
O68         Co88   2.028       .  S
O69          C77   1.293       .  A
O69         Co89   2.071       .  S
O70          C76   1.253       .  A
O70         Co87   1.982       .  S
O71          C77   1.271   1_455  A
O71         Co86   1.894       .  S
O72          C75   1.293       .  A
O72         Co89   2.072       .  S
O73          C74   1.263       .  A
O73         Co88   2.025       .  S
C74         C230   1.448       .  S
C75         C217   1.430       .  S
C76         C228   1.452       .  S
C77         C218   1.429       .  S
O78          C91   1.243   1_455  A
O78         Co86   1.962       .  S
O79          C92   1.271       .  A
O79         Co87   2.023       .  S
O80          C93   1.249       .  A
O80         Co88   1.945       .  S
O81          C94   1.256       .  A
O81         Co89   2.016       .  S
O82          C94   1.242   1_455  A
O82         Co87   1.958       .  S
O83          C93   1.271       .  A
O83         Co86   2.025       .  S
O84          C91   1.256       .  A
O84         Co89   2.018       .  S
O85          C92   1.249       .  A
O85         Co88   1.943       .  S
Co86         O90   1.936       .  S
Co87         O90   1.937       .  S
Co88         O90   2.112       .  S
Co89         O90   2.257   1_655  S
C91         C223   1.446       .  S
C92         C224   1.420       .  S
C93         C226   1.423       .  S
C94         C221   1.443       .  S
C95         C100   1.408       .  A
C95         C351   1.410   1_554  A
C95         C214   1.445       .  S
C96          C97   1.404       .  A
C96         C350   1.410       .  A
C96         H101   1.084       .  S
C97         C353   1.382       .  A
C97         C227   1.426       .  S
C98          C99   1.382       .  A
C98         C352   1.382   1_554  A
C98         H357   1.088       .  S
C99         C100   1.402       .  A
C99         C225   1.423       .  S
C100        H103   1.084       .  S
H102        C353   1.088       .  S
C104        C109   1.405       .  A
C104        C360   1.407   1_554  A
C104        C233   1.448       .  S
C105        C106   1.405       .  A
C105        C359   1.407       .  A
C105        H110   1.084       .  S
C106        C107   1.406       .  A
C106        C222   1.453       .  S
C107        C363   1.406       .  A
C107        H111   1.085       .  S
C108        C109   1.403       .  A
C108        C362   1.406       .  A
C108        C220   1.451       .  S
C109        H112   1.084       .  S
C113        C118   1.407   1_556  A
C113        C369   1.407       .  A
C113        C212   1.443       .  S
C114        C115   1.402       .  A
C114        C368   1.407       .  A
C114        H119   1.085       .  S
C115        C371   1.391       .  A
C115        C219   1.432       .  S
C116        C117   1.390   1_556  A
C116        C370   1.391       .  A
C116        H375   1.087       .  S
C117        C118   1.402       .  A
C117        C216   1.433       .  S
C118        H121   1.084       .  S
H120        C371   1.087       .  S
C122        C123   1.401   1_556  A
C122        C382   1.399       .  A
C122        C245   1.439       .  S
C123        C124   1.402       .  A
C123        H128   1.085       .  S
C124        C380   1.416   1_554  A
C124        C229   1.459       .  S
C125        C126   1.416       .  A
C125        C379   1.416       .  A
C125        H129   1.084       .  S
C126        C127   1.399       .  A
C126        C231   1.455       .  S
C127        C377   1.399       .  A
C127        H130   1.085       .  S
O131        C139   1.273       .  A
O131       Co151   2.035       .  S
O132        C140   1.290       .  A
O132       Co152   2.090       .  S
O133        C141   1.245       .  A
O133       Co153   1.960       .  S
O134        C142   1.274       .  A
O134       Co154   2.000       .  S
O135        C141   1.261       .  A
O135       Co152   2.010       .  S
O136        C142   1.272       .  A
O136       Co151   2.014       .  S
O137        C140   1.270       .  A
O137       Co154   1.913       .  S
O138        C139   1.250       .  A
O138       Co153   1.939       .  S
C139        C211   1.425       .  S
C140        C197   1.441       .  S
C141        C208   1.426       .  S
C142        C198   1.449       .  S
O143        C156   1.257       .  A
O143       Co151   1.969       .  S
O144        C157   1.266       .  A
O144       Co152   1.969       .  S
O145        C158   1.273       .  A
O145       Co153   2.043       .  S
O146        C159   1.303       .  A
O146       Co154   2.134       .  S
O147        C159   1.261       .  A
O147       Co152   1.887       .  S
O148        C158   1.257       .  A
O148       Co151   1.959       .  S
O149        C156   1.267       .  A
O149       Co154   2.022       .  S
O150        C157   1.279       .  A
O150       Co153   2.046       .  S
Co151       O155   2.045       .  S
Co152       O155   2.013       .  S
Co153       O155   2.052       .  S
Co154       O155   2.039       .  S
C156        C202   1.446       .  S
C157        C204   1.453       .  S
C158        C206   1.452       .  S
C159        C201   1.449       .  S
C160        C161   1.409   1_556  A
C160        C420   1.408       .  A
C160        C235   1.448       .  S
C161        C162   1.405       .  A
C161        H166   1.084       .  S
C162        C163   1.386   1_554  A
C162        C210   1.430       .  S
C163        C419   1.387       .  A
C163        H167   1.087       .  S
C164        C165   1.403       .  A
C164        C418   1.387       .  A
C164        C209   1.428       .  S
C165        C415   1.408       .  A
C165        H168   1.084       .  S
C169        C170   1.407       .  A
C169        C429   1.402   1_554  A
C169        C215   1.445       .  S
C170        C171   1.406       .  A
C170        H175   1.084       .  S
C171        C172   1.408   1_554  A
C171        C199   1.456       .  S
C172        C428   1.408       .  A
C172        H176   1.085       .  S
C173        C174   1.400       .  A
C173        C427   1.408       .  A
C173        C196   1.449       .  S
C174        C424   1.402       .  A
C174        H177   1.085       .  S
C178        C179   1.403   1_556  A
C178        C438   1.403       .  A
C178        C213   1.443       .  S
C179        C180   1.402       .  A
C179        H184   1.085       .  S
C180        C181   1.415   1_554  A
C180        C207   1.459       .  S
C181        C437   1.415       .  A
C181        H185   1.084   1_556  S
C182        C183   1.403       .  A
C182        C436   1.415       .  A
C182        C205   1.459       .  S
C183        C433   1.403       .  A
C183        H186   1.085       .  S
C187        C188   1.405       .  A
C187        C447   1.408   1_554  A
C187        C251   1.449       .  S
C188        C189   1.402       .  A
C188        H193   1.084       .  S
C189        C190   1.407       .  A
C189        C203   1.452       .  S
C190        C446   1.407   1_554  A
C190        H194   1.085       .  S
C191        C192   1.406       .  A
C191        C445   1.407       .  A
C191        C200   1.455       .  S
C192        C442   1.408       .  A
C192        H195   1.084       .  S
C196        C197   1.211       .  T
C198        C199   1.215       .  T
C200        C201   1.215       .  T
C202        C203   1.213       .  T
C204        C205   1.218       .  T
C206        C207   1.217       .  T
C208        C209   1.200       .  T
C210        C211   1.201       .  T
C212        C213   1.208       .  T
C214        C215   1.209       .  T
C216        C217   1.203       .  T
C218        C219   1.202       .  T
C220        C221   1.212       .  T
C222        C223   1.213       .  T
C224        C225   1.198       .  T
C226        C227   1.200       .  T
C228        C229   1.217       .  T
C230        C231   1.215       .  T
C232        C233   1.211       .  T
C234        C235   1.211       .  T
C236        C237   1.219       .  T
C238        C239   1.219       .  T
C240        C241   1.200       .  T
C242        C243   1.201       .  T
C244        C265   1.439       .  S
C244        C245   1.206       .  T
C246        C247   1.210       .  T
C248        C249   1.211       .  T
C250        C251   1.212       .  T
C252        C253   1.205       .  T
C254        C255   1.203       .  T
C256        C261   1.411       .  A
C256        C505   1.449       .  S
C257        C258   1.404       .  A
C257        H262   1.084       .  S
C258        C259   1.388   1_556  A
C258        C509   1.433       .  S
C259        H263   1.087       .  S
C260        C261   1.405       .  A
C260        C508   1.435       .  S
C261        H264   1.084       .  S
C265        C270   1.404       .  A
C266        C267   1.400       .  A
C266        H271   1.085       .  S
C267        C502   1.447       .  S
C268        C269   1.407       .  A
C268        H272   1.084       .  S
C269        C270   1.402       .  A
C269        C503   1.450       .  S
C270        H273   1.084       .  S
O274        C282   1.273   1_545  A
O274       Co294   1.900       .  S
O275        C283   1.256       .  A
O275       Co295   1.984       .  S
O276        C284   1.292       .  A
O276       Co296   2.067       .  S
O277        C285   1.265       .  A
O277       Co297   2.027       .  S
O278        C284   1.273   1_545  A
O278       Co295   1.900       .  S
O279        C285   1.256       .  A
O279       Co294   1.985       .  S
O280        C283   1.265       .  A
O280       Co297   2.028       .  S
O281        C282   1.292       .  A
O281       Co296   2.064       .  S
C282        C510   1.431       .  S
C283        C492   1.456       .  S
C284        C507   1.434       .  S
C285        C494   1.455       .  S
O286        C299   1.272       .  A
O286       Co294   2.025       .  S
O287        C300   1.241   1_545  A
O287       Co295   1.959       .  S
O288        C301   1.255       .  A
O288       Co296   2.015       .  S
O289        C302   1.250       .  A
O289       Co297   1.947       .  S
O290        C302   1.272       .  A
O290       Co295   2.024       .  S
O291        C301   1.242   1_545  A
O291       Co294   1.962       .  S
O292        C299   1.250       .  A
O292       Co297   1.948       .  S
O293        C300   1.255       .  A
O293       Co296   2.014       .  S
Co294       O298   1.940       .  S
Co295       O298   1.941       .  S
Co296       O298   2.258   1_565  S
Co297       O298   2.102       .  S
C299        C497   1.425       .  S
C300        C501   1.441       .  S
C301        C504   1.443       .  S
C302        C495   1.423       .  S
C303        C308   1.410       .  A
C303        C489   1.448       .  S
C304        C305   1.405       .  A
C304        H309   1.084       .  S
C305        C306   1.382       .  A
C305        C498   1.427       .  S
C306        H310   1.087       .  S
C307        C308   1.404       .  A
C307        C496   1.426       .  S
C308        H311   1.084       .  S
C312        C317   1.404       .  A
C312        C487   1.448       .  S
C313        C314   1.404       .  A
C313        H318   1.085       .  S
C314        C315   1.416   1_556  A
C314        C493   1.462       .  S
C315        H319   1.084       .  S
C316        C317   1.404       .  A
C316        C491   1.463       .  S
C317        H320   1.085       .  S
O321        C329   1.252       .  A
O321       Co341   1.980       .  S
O322        C330   1.271   1_455  A
O322       Co342   1.894       .  S
O323        C331   1.263       .  A
O323       Co343   2.028       .  S
O324        C332   1.293       .  A
O324       Co344   2.071       .  S
O325        C331   1.253       .  A
O325       Co342   1.982       .  S
O326        C332   1.271   1_455  A
O326       Co341   1.894       .  S
O327        C330   1.293       .  A
O327       Co344   2.072       .  S
O328        C329   1.263       .  A
O328       Co343   2.025       .  S
C329        C485   1.448       .  S
C330        C472   1.430       .  S
C331        C483   1.452       .  S
C332        C473   1.429       .  S
O333        C346   1.243   1_455  A
O333       Co341   1.962       .  S
O334        C347   1.271       .  A
O334       Co342   2.023       .  S
O335        C348   1.249       .  A
O335       Co343   1.945       .  S
O336        C349   1.256       .  A
O336       Co344   2.016       .  S
O337        C349   1.242   1_455  A
O337       Co342   1.958       .  S
O338        C348   1.271       .  A
O338       Co341   2.025       .  S
O339        C346   1.256       .  A
O339       Co344   2.018       .  S
O340        C347   1.249       .  A
O340       Co343   1.943       .  S
Co341       O345   1.936       .  S
Co342       O345   1.937       .  S
Co343       O345   2.112       .  S
Co344       O345   2.257   1_655  S
C346        C478   1.446       .  S
C347        C479   1.420       .  S
C348        C481   1.423       .  S
C349        C476   1.443       .  S
C350        C355   1.408       .  A
C350        C469   1.445       .  S
C351        C352   1.404       .  A
C351        H356   1.084       .  S
C352        C482   1.426       .  S
C353        C354   1.382       .  A
C354        C355   1.402       .  A
C354        C480   1.423       .  S
C355        H358   1.084       .  S
C359        C364   1.405       .  A
C359        C488   1.448       .  S
C360        C361   1.405       .  A
C360        H365   1.084       .  S
C361        C362   1.406   1_556  A
C361        C477   1.453       .  S
C362        H366   1.085       .  S
C363        C364   1.403       .  A
C363        C475   1.451       .  S
C364        H367   1.084       .  S
C368        C373   1.407       .  A
C368        C467   1.443       .  S
C369        C370   1.402       .  A
C369        H374   1.085       .  S
C370        C474   1.432       .  S
C371        C372   1.390       .  A
C372        C373   1.402       .  A
C372        C471   1.433       .  S
C373        H376   1.084       .  S
C377        C378   1.401       .  A
C377        C500   1.439       .  S
C378        C379   1.402       .  A
C378        H383   1.085       .  S
C379        C484   1.459       .  S
C380        C381   1.416       .  A
C380        H384   1.084       .  S
C381        C382   1.399       .  A
C381        C486   1.455       .  S
C382        H385   1.085       .  S
O386        C394   1.273       .  A
O386       Co406   2.035       .  S
O387        C395   1.290       .  A
O387       Co407   2.090       .  S
O388        C396   1.245       .  A
O388       Co408   1.960       .  S
O389        C397   1.274       .  A
O389       Co409   2.000       .  S
O390        C396   1.261       .  A
O390       Co407   2.010       .  S
O391        C397   1.272       .  A
O391       Co406   2.014       .  S
O392        C395   1.270       .  A
O392       Co409   1.913       .  S
O393        C394   1.250       .  A
O393       Co408   1.939       .  S
C394        C466   1.425       .  S
C395        C452   1.441       .  S
C396        C463   1.426       .  S
C397        C453   1.449       .  S
O398        C411   1.257       .  A
O398       Co406   1.969       .  S
O399        C412   1.266       .  A
O399       Co407   1.969       .  S
O400        C413   1.273       .  A
O400       Co408   2.043       .  S
O401        C414   1.303       .  A
O401       Co409   2.134       .  S
O402        C414   1.261       .  A
O402       Co407   1.887       .  S
O403        C413   1.257       .  A
O403       Co406   1.959       .  S
O404        C411   1.267       .  A
O404       Co409   2.022       .  S
O405        C412   1.279       .  A
O405       Co408   2.046       .  S
Co406       O410   2.045       .  S
Co407       O410   2.013       .  S
Co408       O410   2.052       .  S
Co409       O410   2.039       .  S
C411        C457   1.446       .  S
C412        C459   1.453       .  S
C413        C461   1.452       .  S
C414        C456   1.449       .  S
C415        C416   1.409       .  A
C415        C490   1.448       .  S
C416        C417   1.405       .  A
C416        H421   1.084       .  S
C417        C418   1.386       .  A
C417        C465   1.430       .  S
C418        H422   1.087       .  S
C419        C420   1.403       .  A
C419        C464   1.428       .  S
C420        H423   1.084       .  S
C424        C425   1.407       .  A
C424        C470   1.445       .  S
C425        C426   1.406       .  A
C425        H430   1.084       .  S
C426        C427   1.408       .  A
C426        C454   1.456       .  S
C427        H431   1.085       .  S
C428        C429   1.400       .  A
C428        C451   1.449       .  S
C429        H432   1.085       .  S
C433        C434   1.403       .  A
C433        C468   1.443       .  S
C434        C435   1.402       .  A
C434        H439   1.085       .  S
C435        C436   1.415       .  A
C435        C462   1.459       .  S
C436        H440   1.084       .  S
C437        C438   1.403       .  A
C437        C460   1.459       .  S
C438        H441   1.085       .  S
C442        C443   1.405       .  A
C442        C506   1.449       .  S
C443        C444   1.402       .  A
C443        H448   1.084       .  S
C444        C445   1.407       .  A
C444        C458   1.452       .  S
C445        H449   1.085       .  S
C446        C447   1.406       .  A
C446        C455   1.455       .  S
C447        H450   1.084       .  S
C451        C452   1.211       .  T
C453        C454   1.215       .  T
C455        C456   1.215       .  T
C457        C458   1.213       .  T
C459        C460   1.218       .  T
C461        C462   1.217       .  T
C463        C464   1.200       .  T
C465        C466   1.201       .  T
C467        C468   1.208       .  T
C469        C470   1.209       .  T
C471        C472   1.203       .  T
C473        C474   1.202       .  T
C475        C476   1.212       .  T
C477        C478   1.213       .  T
C479        C480   1.198       .  T
C481        C482   1.200       .  T
C483        C484   1.217       .  T
C485        C486   1.215       .  T
C487        C488   1.211       .  T
C489        C490   1.211       .  T
C491        C492   1.219       .  T
C493        C494   1.219       .  T
C495        C496   1.200       .  T
C497        C498   1.201       .  T
C499        C500   1.206       .  T
C501        C502   1.210       .  T
C503        C504   1.211       .  T
C505        C506   1.212       .  T
C507        C508   1.205       .  T
C509        C510   1.203       .  T
