geometry optimzed in LAMMPS
_audit_creation_date              2020-12-01 
_audit_creation_method            'lammps2cif' 
_symmetry_space_group_name_H-M    'P1' 
_symmetry_Int_Tables_number       1 
_symmetry_cell_setting            triclinic 
loop_ 
_symmetry_equiv_pos_as_xyz 
  x,y,z 
_cell_length_a                    28.9927521 
_cell_length_b                    29.406287993114077 
_cell_length_c                    29.967210051799967 
_cell_angle_alpha                 94.03370572118143 
_cell_angle_beta                  86.99893942945808 
_cell_angle_gamma                 91.83952883864644 
loop_ 
_atom_site_label 
_atom_site_type_symbol 
_atom_site_fract_x 
_atom_site_fract_y 
_atom_site_fract_z 
_atom_site_charge 
C1          C  0.32805623  0.41418804  0.34204937     0.86500
C2          C  0.29955825  0.38736655  0.37487416    -0.53700
C3          C  0.32410796  0.35802608  0.39714873     0.09400
C4          C  0.37701596  0.35937864  0.38435174     0.20400
C5          C  0.36531726  0.43831086  0.36827968    -0.54500
C6          C  0.39099899  0.41109956  0.39106405     0.09500
C7          C  0.35291989  0.37922013  0.31138557    -0.54000
C8          C  0.37933173  0.34985389  0.33242076     0.10100
H9          H  0.26228260  0.39067570  0.37899608     0.14600
H10         H  0.39769676  0.33633145  0.40264268     0.00300
H11         H  0.37000587  0.47519491  0.37009550     0.14900
H12         H  0.35004234  0.37884504  0.27530636     0.14700
C13         C  0.14699337  0.07573893  0.14304819     0.86500
C14         C  0.11125695  0.10262197  0.17278198    -0.53700
C15         C  0.08957973  0.13345497  0.15109676     0.09400
C16         C  0.10386985  0.13435161  0.10103772     0.20400
C17         C  0.12154993  0.05393350  0.10408755    -0.54500
C18         C  0.09893951  0.08465010  0.08186675     0.09500
C19         C  0.17899801  0.11179865  0.12266373    -0.54000
C20         C  0.15635059  0.14259796  0.10064846     0.10100
H21         H  0.10507121  0.09965886  0.20858976     0.14600
H22         H  0.08522609  0.15924900  0.08293034     0.00300
H23         H  0.12222301  0.01774480  0.09485424     0.14900
H24         H  0.21619490  0.11280017  0.12454954     0.14700
O25         O  0.03160086  0.47550073  0.41241276    -0.80100
O26         O  0.47495803  0.45665334  0.09906609    -0.80200
O27         O  0.06095032  0.45329870  0.49737495    -0.80200
O28         O  0.43219805  0.41938369  0.45788002    -0.80100
O29         O  0.05937410  0.47436793  0.06373367    -0.80200
O30         O  0.43211978  0.47676644  0.41602911    -0.80200
O31         O  0.45835773  0.40919703  0.04122838    -0.80100
O32         O  0.09552406  0.50988289  0.43381177    -0.80200
C33         C  0.07526140  0.48413932  0.40512198     1.09600
C34         C  0.46996614  0.41652642  0.08130070     1.09400
C35         C  0.07261687  0.44410812  0.03308130     1.09600
C36         C  0.42258985  0.43527481  0.42197481     1.09500
O37         O  0.43905039  0.06002378  0.47139807    -0.80100
O38         O  0.02772962  0.07290727  0.05067699    -0.80200
O39         O  0.03358716  0.06902372  0.45092348    -0.80100
O40         O  0.40002796  0.48402097  0.06856456    -0.80100
O41         O  0.44402136  0.54544857  0.08154008    -0.80200
O42         O  0.49188343  0.05015328  0.39341647    -0.80100
O43         O  0.38687227  0.00478835  0.48309883    -0.80100
O44         O  0.08486704  0.04007950  0.01620398    -0.80200
Co45       Co  0.48537539  0.01706255  0.44565872     1.51500
Co46       Co  0.00166933  0.51378615  0.07135985     1.51700
Co47       Co  0.04465879  0.00304737  0.47368546     1.51600
Co48       Co  0.42580114  0.45447055  0.01034195     1.51500
O49         O  0.47684959  0.49506266  0.50726174    -1.42100
C50         C  0.39762314  0.04692745  0.47845501     1.09500
C51         C  0.07025913  0.06930134  0.04541863     1.09600
C52         C  0.01660401  0.07781471  0.41312582     1.09500
C53         C  0.40514389  0.02518750  0.09005706     1.09500
O54         O  0.31448395  0.29259039  0.44157864    -0.80100
O55         O  0.25054754  0.24840402  0.10171481    -0.80200
O56         O  0.28327606  0.32437981  0.01813843    -0.80200
O57         O  0.29794456  0.14555857  0.50762911    -0.80100
O58         O  0.23342876  0.32996569  0.07440815    -0.80200
O59         O  0.32801721  0.19539622  0.45975084    -0.80200
O60         O  0.30300427  0.23102025  0.04867317    -0.80100
O61         O  0.25535397  0.33538646  0.43476221    -0.80200
C62         C  0.29777376  0.32754354  0.42675122     1.09600
C63         C  0.29278203  0.24300131  0.08920327     1.09400
C64         C  0.27301072  0.33960174  0.05743236     1.09600
C65         C  0.32942260  0.15682626  0.47939728     1.09500
O66         O  0.24371964  0.17891015  0.41471904    -0.80100
O67         O  0.14543654  0.29946110  0.03898999    -0.80200
O68         O  0.17061063  0.28642438  0.44448103    -0.80100
O69         O  0.22414978  0.17330836  0.06773494    -0.80100
O70         O  0.16199488  0.21319751  0.06689996    -0.80200
O71         O  0.22753949  0.26251540  0.39752313    -0.80100
O72         O  0.21533864  0.15631198  0.47749045    -0.80100
O73         O  0.18471814  0.36478737  0.49948837    -0.80200
Co74       Co  0.27539858  0.23523439  0.43529855     1.51500
Co75       Co  0.19945485  0.27040708  0.06501149     1.51700
Co76       Co  0.21944570  0.31142849  0.48554712     1.51600
Co77       Co  0.25654596  0.19491474  0.01310570     1.51500
O78         O  0.23543827  0.25117790  0.49645022    -1.42100
C79         C  0.21941966  0.15099109  0.43565659     1.09500
C80         C  0.14889272  0.33946004  0.02496504     1.09600
C81         C  0.18473562  0.27170322  0.40526362     1.09500
C82         C  0.18159271  0.17805923  0.07713032     1.09500
O83         O  0.03946158  0.27659085  0.31835231    -0.80100
O84         O  0.49295143  0.30071039  0.14720141    -0.80200
O85         O  0.07131425  0.29009966  0.23162636    -0.80200
O86         O  0.40242077  0.32040647  0.26171841    -0.80100
O87         O  0.07336275  0.26300249  0.16166459    -0.80200
O88         O  0.43550926  0.28691876  0.31746249    -0.80200
O89         O  0.48285498  0.33407287  0.21495896    -0.80100
O90         O  0.09788544  0.23419802  0.29398009    -0.80200
C91         C  0.08138786  0.26312613  0.32339138     1.09600
C92         C  0.48896387  0.33649536  0.17292414     1.09400
C93         C  0.08802841  0.29126643  0.19209128     1.09600
C94         C  0.40732239  0.31676115  0.30321023     1.09500
O95         O  0.43564468  0.18747660  0.27994188    -0.80100
O96         O  0.02406600  0.17642794  0.16055253    -0.80200
O97         O  0.02581618  0.17393279  0.28768884    -0.80100
O98         O  0.40967862  0.27736845  0.17561357    -0.80100
O99         O  0.44418017  0.21633823  0.14429976    -0.80200
O100        O  0.48958847  0.20806754  0.34886769    -0.80100
O101        O  0.39543845  0.23301838  0.24526377    -0.80100
O102        O  0.07905668  0.19171667  0.20879457    -0.80200
Co103      Co  0.48469242  0.23526970  0.29294824     1.51500
Co104      Co  0.00699451  0.23903636  0.15787699     1.51700
Co105      Co  0.04664932  0.23284407  0.25623116     1.51600
Co106      Co  0.44290561  0.28179312  0.23369098     1.51500
O107        O  0.49108608  0.24072383  0.22417650    -1.42100
C108        C  0.39945290  0.19517977  0.26122060     1.09500
C109        C  0.06230778  0.16820952  0.17554700     1.09600
C110        C  0.01090938  0.17162277  0.32923167     1.09500
C111        C  0.41020919  0.24296122  0.14712015     1.09500
O112        O  0.30686658  0.48889619  0.32851648    -0.80100
O113        O  0.29413238  0.00914752  0.17445131    -0.80200
O114        O  0.27810358  0.42066060  0.19424241    -0.80200
O115        O  0.28249639  0.10486027  0.25981549    -0.80100
O116        O  0.24650289  0.43362306  0.13088410    -0.80200
O117        O  0.32349527  0.04353891  0.26317227    -0.80200
O118        O  0.26369081  0.07620454  0.17404818    -0.80100
O119        O  0.27143727  0.42906753  0.28960036    -0.80200
C120        C  0.30073981  0.44599117  0.31876728     1.09600
C121        C  0.29563215  0.04866169  0.16111507     1.09400
C122        C  0.27484192  0.41193167  0.15137394     1.09600
C123        C  0.32135682  0.08654707  0.26153510     1.09500
O124        O  0.25042204  0.06620134  0.33168055    -0.80100
O125        O  0.17373999  0.43522006  0.19196415    -0.80200
O126        O  0.17133027  0.45480873  0.28465186    -0.80100
O127        O  0.16950682  0.05095971  0.20993998    -0.80100
O128        O  0.20069570  0.01681974  0.15005222    -0.80200
O129        O  0.21922409  0.48933912  0.32921139    -0.82100
O130        O  0.19137066  0.08420609  0.29270918    -0.80100
O131        O  0.20173116  0.38207269  0.23169510    -0.80200
Co132      Co  0.27060464  0.01055772  0.29334160     1.51500
Co133      Co  0.23511652  0.47402540  0.18130446     1.51700
Co134      Co  0.22513091  0.44315516  0.24062973     1.51600
Co135      Co  0.22557242  0.07677052  0.23403269     1.51500
O136        O  0.23445757  0.51085052  0.23883380    -1.42100
C137        C  0.21168201  0.08546330  0.32926713     1.09500
C138        C  0.17031909  0.39477427  0.20738352     1.09600
C139        C  0.18015032  0.47154911  0.32300241     1.09500
C140        C  0.17155023  0.04406584  0.16843316     1.09500
C141        C  0.36059190  0.16162739  0.25816357    -0.16400
C142        C  0.36346438  0.11661629  0.26361903    -0.31600
H143        H  0.32788071  0.17501360  0.24990026     0.12600
H144        H  0.39625189  0.10228106  0.27012171     0.13200
C145        C  0.12758157  0.36630328  0.20331008    -0.16400
C146        C  0.12695746  0.32387454  0.18304415    -0.31600
H147        H  0.09677644  0.37873688  0.22193282     0.12600
H148        H  0.15673030  0.31193830  0.16243126     0.13200
C149        C  0.30280267  0.37344934  0.08142755    -0.16400
C150        C  0.30092438  0.37544487  0.12647401    -0.31600
H151        H  0.30805873  0.40510202  0.06492160     0.12600
H152        H  0.29999167  0.34382832  0.14299362     0.13200
C153        C  0.19267845  0.11506152  0.36701004    -0.16400
C154        C  0.20221231  0.11024926  0.40976759    -0.31600
H155        H  0.18022611  0.14754856  0.35816305     0.12600
H156        H  0.21240094  0.07743715  0.41985572     0.13200
C157        C  0.10979215  0.27914690  0.36291406    -0.16400
C158        C  0.15349131  0.26424679  0.36643759    -0.31600
H159        H  0.09387565  0.30067444  0.39019086     0.12600
H160        H  0.16852148  0.24373559  0.33792088     0.13200
C161        C  0.37258144  0.23448594  0.11503122    -0.16400
C162        C  0.32945885  0.25048889  0.12246994    -0.31600
H163        H  0.38058978  0.21362046  0.08447295     0.12600
H164        H  0.32043942  0.26850726  0.15436762     0.13200
C165        C  0.36800447  0.12502526  0.47129643    -0.16400
C166        C  0.36108368  0.08081371  0.48114328    -0.31600
H167        H  0.40112754  0.13719646  0.45760405     0.12600
H168        H  0.32698382  0.06881625  0.49258365     0.13200
C169        C  0.10876987  0.36828111  0.02166623    -0.16400
C170        C  0.10690865  0.41016938  0.04299585    -0.31600
H171        H  0.08277431  0.35688511  0.99818556     0.12600
H172        H  0.13283800  0.42838080  0.57065225     0.13200
C173        C  0.10178028  0.46630266  0.36407273    -0.16400
C174        C  0.14797142  0.47260420  0.36273799    -0.31600
H175        H  0.08408101  0.45386642  0.33467382     0.12600
H176        H  0.16402975  0.48470251  0.39329533     0.13200
C177        C  0.37400689  0.03793497  0.12922833    -0.16400
C178        C  0.33353298  0.05922594  0.12766093    -0.31600
H179        H  0.38149625  0.52004273  0.15733177     0.12600
H180        H  0.32609585  0.07773622  0.09887787     0.13200
C181        C  0.48576724  0.37960307  0.15120017    -0.16400
C182        C  0.47645272  0.37734173  0.10735962    -0.31600
H183        H  0.48813539  0.41232129  0.17088850     0.12600
H184        H  0.47226912  0.34414057  0.08876416     0.13200
C185        C  0.02105313  0.12346836  0.39423787    -0.16400
C186        C  0.01318666  0.12771497  0.35054834    -0.31600
H187        H  0.02912402  0.15322298  0.41593736     0.12600
H188        H  0.00865356  0.09720306  0.32867406     0.13200
C189        C  0.33250041  0.41627788  0.84097782     0.86500
C190        C  0.30411719  0.39155286  0.87539472    -0.53700
C191        C  0.32794433  0.36148560  0.89757083     0.09400
C192        C  0.38036151  0.36070916  0.88356952     0.20400
C193        C  0.37171296  0.43970538  0.86546034    -0.54500
C194        C  0.39665631  0.41200713  0.88868494     0.09500
C195        C  0.35500438  0.37954604  0.81061297    -0.54000
C196        C  0.38100639  0.34986791  0.83185961     0.10100
H197        H  0.26696512  0.39618897  0.88004278     0.14600
H198        H  0.40060554  0.33732908  0.90187631     0.00300
H199        H  0.37817608  0.47634460  0.86578828     0.14900
H200        H  0.35126520  0.37846706  0.77462731     0.14700
C201        C  0.14993558  0.08016822  0.64203570     0.86500
C202        C  0.11444669  0.10864109  0.66993015    -0.53700
C203        C  0.09267574  0.13774528  0.64645368     0.09400
C204        C  0.10649054  0.13504646  0.59577899     0.20400
C205        C  0.12421198  0.05536863  0.60468182    -0.54500
C206        C  0.10171305  0.08385564  0.57991675     0.09500
C207        C  0.18181504  0.11472168  0.61895642    -0.54000
C208        C  0.15911191  0.14381473  0.59464774     0.10100
H209        H  0.10838869  0.10803932  0.70602960     0.14600
H210        H  0.08758770  0.15836143  0.57607392     0.00300
H211        H  0.12383360  0.01852052  0.59849893     0.14900
H212        H  0.21906581  0.11620052  0.62166488     0.14700
O213        O  0.02976265  0.47203708  0.90978038    -0.80100
O214        O  0.46642454  0.46177048  0.60208525    -0.80200
O215        O  0.06025029  0.44544944  0.99319576    -0.80200
O216        O  0.44123779  0.41775836  0.95373133    -0.80100
O217        O  0.05919114  0.48333053  0.56747649    -0.80200
O218        O  0.43961662  0.47663394  0.91442313    -0.80200
O219        O  0.44860258  0.41365544  0.54543469    -0.80100
O220        O  0.09408834  0.50479575  0.93184326    -0.80200
C221        C  0.07373180  0.47977014  0.90292324     1.09600
C222        C  0.46100406  0.42136896  0.58516086     1.09400
C223        C  0.07237599  0.45234035  0.53751865     1.09600
C224        C  0.42978848  0.43501371  0.91910796     1.09500
O225        O  0.43889490  0.06000495  0.97051903    -0.80100
O226        O  0.03053021  0.06771069  0.54939653    -0.80200
O227        O  0.03004503  0.07535432  0.95130529    -0.80100
O228        O  0.39132272  0.49081558  0.57055161    -0.80100
O229        O  0.43738518  0.55098600  0.58214299    -0.80200
O230        O  0.49197154  0.05001916  0.89223801    -0.80100
O231        O  0.38724182  0.00460675  0.98337062    -0.80100
O232        O  0.08776888  0.03369621  0.51693491    -0.80200
Co233      Co  0.48579294  0.01690836  0.94456772     1.51500
Co234      Co  0.00051460  0.52140829  0.57296389     1.51700
Co235      Co  0.04141464  0.00972490  0.97391822     1.51600
Co236      Co  0.41649728  0.45819267  0.51306373     1.51500
O237        O  0.48553898  0.49232189  0.00631016    -1.42100
C238        C  0.39759370  0.04698956  0.97911476     1.09500
C239        C  0.07303144  0.06455397  0.54450777     1.09600
C240        C  0.01377422  0.08331083  0.91305013     1.09500
C241        C  0.40472284  0.02610922  0.59085256     1.09500
O242        O  0.31412115  0.29339974  0.93951877    -0.80100
O243        O  0.25379193  0.24809215  0.59729084    -0.80200
O244        O  0.27280169  0.33880377  0.51762472    -0.80200
O245        O  0.29429702  0.14484328  0.01094916    -0.80100
O246        O  0.23458639  0.33061059  0.57927230    -0.80200
O247        O  0.32631121  0.19720348  0.96747879    -0.80200
O248        O  0.30806638  0.23106974  0.54548121    -0.80100
O249        O  0.26055445  0.34238483  0.93669943    -0.80200
C250        C  0.30075706  0.33106302  0.92652731     1.09600
C251        C  0.29655245  0.24392572  0.58554396     1.09400
C252        C  0.26772449  0.34896853  0.55842030     1.09600
C253        C  0.32712050  0.15743158  0.98480016     1.09500
O254        O  0.24439201  0.17544809  0.92090505    -0.80100
O255        O  0.14982427  0.30807861  0.53600361    -0.80200
O256        O  0.17941225  0.29393081  0.93737827    -0.80100
O257        O  0.22776729  0.17455839  0.56316326    -0.80100
O258        O  0.16579479  0.21361783  0.55737191    -0.80200
O259        O  0.23018429  0.25606702  0.89512395    -0.80100
O260        O  0.20992203  0.15509860  0.98208425    -0.80100
O261        O  0.18733633  0.35442539  0.01048212    -0.80200
Co262      Co  0.27384553  0.23379526  0.93967464     1.51500
Co263      Co  0.20311933  0.27200125  0.56094953     1.51700
Co264      Co  0.22814877  0.31044394  0.98167714     1.51600
Co265      Co  0.26190293  0.19585293  0.50948965     1.51500
O266        O  0.22732977  0.24842011  0.99917752    -1.42100
C267        C  0.21705143  0.14894914  0.94061597     1.09500
C268        C  0.14982893  0.34917347  0.52186839     1.09600
C269        C  0.19028257  0.27299138  0.90027090     1.09500
C270        C  0.18478936  0.17889490  0.57010588     1.09500
O271        O  0.04232192  0.27934177  0.81594215    -0.80100
O272        O  0.49368807  0.30502565  0.64760430    -0.80200
O273        O  0.07335740  0.29385323  0.73020646    -0.80200
O274        O  0.40165907  0.31810981  0.76159722    -0.80100
O275        O  0.07629293  0.26922218  0.65964637    -0.80200
O276        O  0.43776366  0.28731901  0.81708489    -0.80200
O277        O  0.48193143  0.33590926  0.71616263    -0.80100
O278        O  0.10035652  0.23670218  0.79083341    -0.80200
C279        C  0.08452928  0.26586398  0.82032487     1.09600
C280        C  0.48765929  0.33992640  0.67429958     1.09400
C281        C  0.09109903  0.29588108  0.69121391     1.09600
C282        C  0.40809154  0.31582796  0.80294339     1.09500
O283        O  0.43881674  0.18777362  0.77961665    -0.80100
O284        O  0.02820557  0.18245745  0.65447285    -0.80200
O285        O  0.02824380  0.17665934  0.78481123    -0.80100
O286        O  0.41098431  0.27821898  0.67490508    -0.80100
O287        O  0.44728204  0.21893122  0.64236719    -0.80200
O288        O  0.49353608  0.20857594  0.84764150    -0.80100
O289        O  0.39828200  0.23112319  0.74277717    -0.80100
O290        O  0.08149490  0.19556296  0.70489398    -0.80200
Co291      Co  0.48758801  0.23638954  0.79201301     1.51500
Co292      Co  0.01013542  0.24489469  0.65512319     1.51700
Co293      Co  0.04897046  0.23579687  0.75344037     1.51600
Co294      Co  0.44379236  0.28163949  0.73308681     1.51500
O295        O  0.49334802  0.24208173  0.72298630    -1.42100
C296        C  0.40287261  0.19398705  0.75979707     1.09500
C297        C  0.06575158  0.17342449  0.67021486     1.09600
C298        C  0.01328733  0.17461280  0.82646045     1.09500
C299        C  0.41258060  0.24456497  0.64564913     1.09500
O300        O  0.30906255  0.49065675  0.83069308    -0.80100
O301        O  0.29582746  0.01352187  0.68018892    -0.80200
O302        O  0.27946890  0.43137162  0.69463104    -0.80200
O303        O  0.28482102  0.10668816  0.76521725    -0.80100
O304        O  0.24491930  0.44715599  0.63398396    -0.80200
O305        O  0.32364920  0.04400194  0.76839962    -0.80200
O306        O  0.26654869  0.08087079  0.67830060    -0.80100
O307        O  0.27459592  0.43204808  0.78935513    -0.80200
C308        C  0.30440794  0.44823815  0.81853976     1.09600
C309        C  0.29794640  0.05262438  0.66576440     1.09400
C310        C  0.27428183  0.42437385  0.65199016     1.09600
C311        C  0.32302976  0.08703092  0.76626665     1.09500
O312        O  0.24974884  0.06839601  0.83593908    -0.80100
O313        O  0.17289074  0.44303678  0.69540399    -0.80200
O314        O  0.17286170  0.45430033  0.78672835    -0.80100
O315        O  0.17126988  0.05947986  0.71144110    -0.80100
O316        O  0.20358896  0.02276895  0.65333974    -0.80200
O317        O  0.21963886  0.48686267  0.83372584    -0.82100
O318        O  0.19244021  0.08887575  0.79580594    -0.80100
O319        O  0.20479473  0.38699436  0.72808778    -0.80200
Co320      Co  0.26917664  0.01255401  0.79783178     1.51500
Co321      Co  0.23280551  0.48395621  0.68711368     1.51700
Co322      Co  0.22643785  0.44828238  0.74233972     1.51600
Co323      Co  0.22766499  0.08150899  0.73782179     1.51500
O324        O  0.23146810  0.51700384  0.74634781    -1.42100
C325        C  0.21140428  0.08823353  0.83293510     1.09500
C326        C  0.17175262  0.40090281  0.70640523     1.09600
C327        C  0.18101214  0.46825489  0.82595183     1.09500
C328        C  0.17443163  0.05080179  0.67000998     1.09500
C329        C  0.36450136  0.15986435  0.75686683    -0.16400
C330        C  0.36608548  0.11585866  0.76675119    -0.31600
H331        H  0.33250553  0.17240673  0.74568768     0.12600
H332        H  0.39811861  0.10177432  0.77601813     0.13200
C333        C  0.12986042  0.37147117  0.70002526    -0.16400
C334        C  0.13135985  0.32741560  0.68433222    -0.31600
H335        H  0.09683666  0.38574303  0.71149059     0.12600
H336        H  0.16359532  0.31346103  0.67003015     0.13200
C337        C  0.29569119  0.38569409  0.58046104    -0.16400
C338        C  0.29818651  0.38771574  0.62517849    -0.31600
H339        H  0.29794759  0.41708601  0.56355895     0.12600
H340        H  0.30006943  0.35630856  0.64158388     0.13200
C341        C  0.19105173  0.11598774  0.87117667    -0.16400
C342        C  0.19951764  0.10924984  0.91376056    -0.31600
H343        H  0.17884156  0.14896976  0.86340595     0.12600
H344        H  0.20975022  0.07601743  0.92265264     0.13200
C345        C  0.11443349  0.28223681  0.85888712    -0.16400
C346        C  0.15810111  0.26642485  0.86176712    -0.31600
H347        H  0.09960205  0.30446731  0.88612639     0.12600
H348        H  0.17165758  0.24451518  0.83364642     0.13200
C349        C  0.37528119  0.23560043  0.61340019    -0.16400
C350        C  0.33249092  0.25274514  0.61932352    -0.31600
H351        H  0.38332221  0.21327056  0.58378424     0.12600
H352        H  0.32323573  0.27283062  0.65004414     0.13200
C353        C  0.36652128  0.12616017  0.97646461    -0.16400
C354        C  0.36056877  0.08114035  0.98416114    -0.31600
H355        H  0.39943990  0.13937452  0.96339639     0.12600
H356        H  0.32666420  0.06837872  0.99532373     0.13200
C357        C  0.10746926  0.37631378  0.52537969    -0.16400
C358        C  0.10599362  0.41784801  0.54772255    -0.31600
H359        H  0.07974719  0.36504471  0.50378735     0.12600
H360        H  0.13212427  0.42030029  0.06780493     0.13200
C361        C  0.10120936  0.46190346  0.86265179    -0.16400
C362        C  0.14765693  0.46477854  0.86434202    -0.31600
H363        H  0.08478817  0.45402081  0.83148531     0.12600
H364        H  0.16252967  0.47236380  0.89641860     0.13200
C365        C  0.37452308  0.03794249  0.63091670    -0.16400
C366        C  0.33547121  0.06189611  0.63146617    -0.31600
H367        H  0.37657404  0.52721760  0.65931230     0.12600
H368        H  0.32867391  0.08247975  0.60395072     0.13200
C369        C  0.48138946  0.38362110  0.65398470    -0.16400
C370        C  0.46870030  0.38202153  0.61108813    -0.31600
H371        H  0.48478306  0.41603615  0.67391084     0.12600
H372        H  0.46345187  0.34890299  0.59275127     0.13200
C373        C  0.01935906  0.12823588  0.89306123    -0.16400
C374        C  0.01561138  0.13114585  0.84849208    -0.31600
H375        H  0.02476711  0.15868834  0.91470628     0.12600
H376        H  0.01374961  0.10011076  0.82694100     0.13200
C377        C  0.33203760  0.91509242  0.34342046     0.86500
C378        C  0.30495311  0.88836200  0.37733789    -0.53700
C379        C  0.33056602  0.85877744  0.39805012     0.09400
C380        C  0.38303001  0.86060198  0.38355396     0.20400
C381        C  0.37042038  0.93953128  0.36808956    -0.54500
C382        C  0.39706189  0.91245407  0.38999995     0.09500
C383        C  0.35590751  0.88022627  0.31173980    -0.54000
C384        C  0.38320024  0.85099937  0.33176486     0.10100
H385        H  0.26763443  0.89066428  0.38213909     0.14600
H386        H  0.40455164  0.83750797  0.40090193     0.00300
H387        H  0.37507663  0.97643744  0.36970366     0.14900
H388        H  0.35156871  0.87957532  0.27586632     0.14700
C389        C  0.15026392  0.57580505  0.13643491     0.86500
C390        C  0.11532799  0.60371090  0.16636822    -0.53700
C391        C  0.09362649  0.63461806  0.14455861     0.09400
C392        C  0.10741716  0.63473586  0.09426765     0.20400
C393        C  0.12427278  0.55420381  0.09832758    -0.54500
C394        C  0.10165727  0.58462954  0.07613375     0.09500
C395        C  0.18251682  0.61127843  0.11546330    -0.54000
C396        C  0.16010011  0.64254394  0.09339953     0.10100
H397        H  0.10942166  0.60101924  0.20222219     0.14600
H398        H  0.08882243  0.65952414  0.07599353     0.00300
H399        H  0.12424603  0.51792702  0.08977170     0.14900
H400        H  0.21966750  0.61169424  0.11733741     0.14700
O401        O  0.03192760  0.96953713  0.41054850    -0.80100
O402        O  0.47380633  0.95837341  0.10025320    -0.80200
O403        O  0.06095584  0.94270833  0.49360427    -0.80200
O404        O  0.44005039  0.92028147  0.45584140    -0.80100
O405        O  0.05649391  0.97712387  0.06517368    -0.80200
O406        O  0.43822265  0.97839868  0.41562844    -0.80200
O407        O  0.45683546  0.91139218  0.04239261    -0.80100
O408        O  0.09604553  0.00257135  0.43313742    -0.80200
C409        C  0.07571977  0.97763420  0.40397538     1.09600
C410        C  0.46883642  0.91830858  0.08234699     1.09400
C411        C  0.07003748  0.94750245  0.03408451     1.09600
C412        C  0.42919087  0.93665483  0.42062145     1.09500
O413        O  0.42930536  0.55907041  0.47060237    -0.80100
O414        O  0.02921413  0.57018770  0.04869777    -0.80200
O415        O  0.03178517  0.57554257  0.45005775    -0.80100
O416        O  0.39827190  0.98644883  0.06957446    -0.80100
O417        O  0.44258735  0.04742043  0.08327310    -0.80200
O418        O  0.48369177  0.55075979  0.39320966    -0.80100
O419        O  0.37831355  0.50308609  0.48289818    -0.80100
O420        O  0.08592355  0.53643877  0.01410188    -0.80200
Co421      Co  0.47779544  0.51732701  0.44526019     1.51500
Co422      Co  0.99928521  0.01688023  0.07265027     1.51700
Co423      Co  0.04408069  0.51164563  0.47505286     1.51600
Co424      Co  0.42469921  0.95707713  0.01146342     1.51500
O425        O  0.48354417  0.99503533  0.50778092    -1.42100
C426        C  0.38778577  0.54507005  0.47674313     1.09500
C427        C  0.07169501  0.56729047  0.04176617     1.09600
C428        C  0.01523627  0.58249181  0.41173428     1.09500
C429        C  0.40690037  0.52301945  0.08852982     1.09500
O430        O  0.32274352  0.78634901  0.42923521    -0.80100
O431        O  0.25523753  0.74655140  0.09951444    -0.80200
O432        O  0.27561836  0.83918225  0.01968311    -0.80200
O433        O  0.27793850  0.64269128  0.47612244    -0.80100
O434        O  0.23878755  0.82879842  0.08164442    -0.80200
O435        O  0.32875050  0.69388105  0.44998087    -0.80200
O436        O  0.31027994  0.72752566  0.04879730    -0.80100
O437        O  0.26310965  0.83141814  0.43477027    -0.80200
C438        C  0.30532592  0.82429454  0.42377325     1.09600
C439        C  0.29798893  0.74127405  0.08841175     1.09400
C440        C  0.27196651  0.84717951  0.06084147     1.09600
C441        C  0.31916055  0.65400520  0.46312048     1.09500
O442        O  0.24586127  0.67464860  0.40673407    -0.80100
O443        O  0.15384163  0.80832259  0.03559176    -0.80200
O444        O  0.17886762  0.77742849  0.43316521    -0.80100
O445        O  0.22942233  0.67367255  0.06503510    -0.80100
O446        O  0.16819751  0.71323968  0.05742875    -0.80200
O447        O  0.23659397  0.76126978  0.38429278    -0.80100
O448        O  0.18862455  0.67358753  0.45894944    -0.80100
O449        O  0.18639512  0.85651968  0.48768078    -0.80200
Co450      Co  0.28291525  0.73043165  0.42085718     1.51500
Co451      Co  0.20622852  0.77127363  0.06211199     1.51700
Co452      Co  0.22184495  0.80273859  0.47983514     1.51600
Co453      Co  0.26428239  0.69419847  0.01195078     1.51500
O454        O  0.25063130  0.74324087  0.48050521    -1.42100
C455        C  0.20646003  0.66001687  0.42092471     1.09500
C456        C  0.15342762  0.84806388  0.01833737     1.09600
C457        C  0.19347210  0.76805007  0.39299985     1.09500
C458        C  0.18643645  0.67827227  0.07064835     1.09500
O459        O  0.04378951  0.77586562  0.31314119    -0.80100
O460        O  0.49525360  0.80117181  0.14647878    -0.80200
O461        O  0.07272087  0.79004106  0.22740540    -0.80200
O462        O  0.40393595  0.82058268  0.26063909    -0.80100
O463        O  0.07486825  0.76542630  0.15687838    -0.80200
O464        O  0.43781221  0.78736214  0.31605678    -0.80200
O465        O  0.48476241  0.83387605  0.21450931    -0.80100
O466        O  0.10099606  0.73269980  0.28703090    -0.80200
C467        C  0.08593066  0.76186975  0.31674329     1.09600
C468        C  0.49071414  0.83676142  0.17249896     1.09400
C469        C  0.08959725  0.79257534  0.18816083     1.09600
C470        C  0.40972548  0.81734156  0.30205133     1.09500
O471        O  0.43646434  0.68735305  0.27910138    -0.80100
O472        O  0.02782144  0.67776918  0.15328558    -0.80200
O473        O  0.02857505  0.67338079  0.28269752    -0.80100
O474        O  0.41232197  0.77716486  0.17486924    -0.80100
O475        O  0.44715608  0.71612550  0.14396765    -0.80200
O476        O  0.49065739  0.70857701  0.34803791    -0.80100
O477        O  0.39672363  0.73300518  0.24418417    -0.80100
O478        O  0.08158844  0.69193654  0.20294024    -0.80200
Co479      Co  0.48613323  0.73516833  0.29180449     1.51500
Co480      Co  0.00880108  0.74025480  0.15311006     1.51700
Co481      Co  0.04890250  0.73207846  0.25095759     1.51600
Co482      Co  0.44460021  0.78164543  0.23304353     1.51500
O483        O  0.49260471  0.74034715  0.22318031    -1.42100
C484        C  0.40039161  0.69507297  0.26007612     1.09500
C485        C  0.06574635  0.66923422  0.16884056     1.09600
C486        C  0.01451051  0.67188543  0.32458017     1.09500
C487        C  0.41313269  0.74242547  0.14691888     1.09500
O488        O  0.30830107  0.98896802  0.33221576    -0.80100
O489        O  0.29441251  0.50541866  0.16797820    -0.80200
O490        O  0.28089459  0.92461724  0.19746338    -0.80200
O491        O  0.28289926  0.60382957  0.25211240    -0.80100
O492        O  0.24722000  0.93780111  0.13545276    -0.80200
O493        O  0.32387890  0.54291875  0.25827534    -0.80200
O494        O  0.26482054  0.57304702  0.16725697    -0.80100
O495        O  0.27398094  0.92925231  0.29216234    -0.80200
C496        C  0.30329870  0.94629586  0.32133649     1.09600
C497        C  0.29653420  0.54520376  0.15507705     1.09400
C498        C  0.27693822  0.91664459  0.15473427     1.09600
C499        C  0.32174490  0.58586829  0.25589687     1.09500
O500        O  0.24898587  0.56895585  0.32398997    -0.80100
O501        O  0.17458058  0.93660418  0.19599694    -0.80200
O502        O  0.17317991  0.95230046  0.28709164    -0.80100
O503        O  0.17050657  0.54775747  0.20251765    -0.80100
O504        O  0.20179968  0.51424110  0.14297496    -0.80200
O505        O  0.21991652  0.98611463  0.33337522    -0.82100
O506        O  0.19012522  0.58177790  0.28277597    -0.80100
O507        O  0.20505459  0.88227174  0.23209118    -0.80200
Co508      Co  0.27027819  0.51124988  0.28857812     1.51500
Co509      Co  0.23515730  0.97663472  0.18683902     1.51700
Co510      Co  0.22714599  0.94383363  0.24367255     1.51600
Co511      Co  0.22592867  0.57453400  0.22618086     1.51500
O512        O  0.23364915  0.01218674  0.24497670    -1.42100
C513        C  0.21053176  0.58805553  0.31874381     1.09500
C514        C  0.17262316  0.89524525  0.20912422     1.09600
C515        C  0.18148912  0.96722538  0.32600147     1.09500
C516        C  0.17347708  0.54245142  0.16116707     1.09500
C517        C  0.36125365  0.66153840  0.25623064    -0.16400
C518        C  0.36381529  0.61613302  0.25999204    -0.31600
H519        H  0.32874835  0.67524820  0.24814865     0.12600
H520        H  0.39636878  0.60151099  0.26650486     0.13200
C521        C  0.13018442  0.86624536  0.20477440    -0.16400
C522        C  0.12851618  0.82577301  0.18054822    -0.31600
H523        H  0.10025162  0.87674914  0.22591300     0.12600
H524        H  0.15724106  0.81578780  0.15750779     0.13200
C525        C  0.30275267  0.88073707  0.08383995    -0.16400
C526        C  0.30381976  0.88180558  0.12859842    -0.31600
H527        H  0.30751633  0.91264233  0.06764047     0.12600
H528        H  0.30481060  0.84976043  0.14443978     0.13200
C529        C  0.19357524  0.62512574  0.34935574    -0.16400
C530        C  0.18664122  0.62221330  0.39341933    -0.31600
H531        H  0.19702195  0.65867406  0.33612619     0.12600
H532        H  0.18187897  0.58929579  0.40758226     0.13200
C533        C  0.11656331  0.77707866  0.35478757    -0.16400
C534        C  0.16111579  0.76294133  0.35495011    -0.31600
H535        H  0.10167904  0.79678785  0.38385826     0.12600
H536        H  0.17534737  0.74463192  0.32474158     0.13200
C537        C  0.37583682  0.73292040  0.11551147    -0.16400
C538        C  0.33319847  0.74973621  0.12235962    -0.31600
H539        H  0.38374770  0.71086855  0.08595524     0.12600
H540        H  0.32406129  0.76934891  0.15309065     0.13200
C541        C  0.35675314  0.62081487  0.46356091    -0.16400
C542        C  0.34961829  0.57754641  0.47554402    -0.31600
H543        H  0.39158960  0.63257465  0.45377691     0.12600
H544        H  0.31470813  0.56540096  0.48455867     0.13200
C545        C  0.11041023  0.87401811  0.01807221    -0.16400
C546        C  0.10416220  0.91311195  0.04381450    -0.31600
H547        H  0.08723910  0.86481581  0.99132924     0.12600
H548        H  0.13646072  0.91802926  0.56268584     0.13200
C549        C  0.10273780  0.96027351  0.36354224    -0.16400
C550        C  0.14893023  0.96411520  0.36464725    -0.31600
H551        H  0.08583575  0.95167713  0.33246173     0.12600
H552        H  0.16435759  0.97241051  0.39664175     0.13200
C553        C  0.37571459  0.53662999  0.12688420    -0.16400
C554        C  0.33499475  0.55624126  0.12301014    -0.31600
H555        H  0.38001182  0.01984779  0.15872701     0.12600
H556        H  0.32791444  0.57305682  0.09309710     0.13200
C557        C  0.48658489  0.88023437  0.15136880    -0.16400
C558        C  0.47608785  0.87864955  0.10784093    -0.31600
H559        H  0.48917847  0.91268809  0.17138572     0.12600
H560        H  0.47169865  0.84564288  0.08905011     0.13200
C561        C  0.02104964  0.62673675  0.39114524    -0.16400
C562        C  0.01692204  0.62886574  0.34674196    -0.31600
H563        H  0.02699558  0.65771582  0.41248293     0.12600
H564        H  0.01453195  0.59736072  0.32539388     0.13200
C565        C  0.32886296  0.91516090  0.84741427     0.86500
C566        C  0.30231856  0.88762128  0.88078271    -0.53700
C567        C  0.32832313  0.85808364  0.90141917     0.09400
C568        C  0.38079526  0.86059407  0.88680116     0.20400
C569        C  0.36695752  0.93958217  0.87251583    -0.54500
C570        C  0.39441652  0.91243219  0.89331981     0.09500
C571        C  0.35311380  0.88082973  0.81535101    -0.54000
C572        C  0.38110583  0.85182321  0.83503223     0.10100
H573        H  0.26507505  0.89032749  0.88605232     0.14600
H574        H  0.40277229  0.83759512  0.90376821     0.00300
H575        H  0.37154565  0.97645063  0.87448692     0.14900
H576        H  0.34887211  0.88065240  0.77949776     0.14700
C577        C  0.14382729  0.58580594  0.64668479     0.86500
C578        C  0.10459839  0.60909191  0.67459523    -0.53700
C579        C  0.08317466  0.64071242  0.65327027     0.09400
C580        C  0.10181751  0.64450508  0.60382590     0.20400
C581        C  0.12286543  0.56477763  0.60479795    -0.54500
C582        C  0.10012888  0.59476760  0.58204212     0.09500
C583        C  0.17545225  0.62479518  0.63118573    -0.54000
C584        C  0.15445844  0.65553371  0.60769617     0.10100
H585        H  0.09706339  0.60429971  0.70991686     0.14600
H586        H  0.08348326  0.66953384  0.58563757     0.00300
H587        H  0.12497368  0.52875500  0.59486536     0.14900
H588        H  0.21264382  0.62447190  0.63229340     0.14700
O589        O  0.02849247  0.97455911  0.91168680    -0.80100
O590        O  0.47279368  0.95965000  0.60094755    -0.80200
O591        O  0.05845346  0.94997714  0.99405676    -0.80200
O592        O  0.44162729  0.92019780  0.95572270    -0.80100
O593        O  0.05901273  0.97017964  0.56456939    -0.80200
O594        O  0.43845294  0.97779889  0.91517743    -0.80200
O595        O  0.45528014  0.91219124  0.54345375    -0.80100
O596        O  0.09226229  0.00944632  0.93276238    -0.80200
C597        C  0.07216475  0.98303134  0.90465497     1.09600
C598        C  0.46732636  0.91953618  0.58339976     1.09400
C599        C  0.07259422  0.93999907  0.53355753     1.09600
C600        C  0.42907330  0.93628889  0.92112492     1.09500
O601        O  0.44001668  0.55699127  0.97155975    -0.80100
O602        O  0.02829197  0.57848978  0.55137175    -0.80200
O603        O  0.03163263  0.57077583  0.95124021    -0.80100
O604        O  0.39746689  0.98765250  0.56988714    -0.80100
O605        O  0.44203348  0.04847168  0.58382193    -0.80200
O606        O  0.49209241  0.54930098  0.89300675    -0.80100
O607        O  0.38816812  0.50132115  0.98247262    -0.80100
O608        O  0.08612979  0.54577128  0.51776565    -0.80200
Co609      Co  0.48672982  0.51524487  0.94470648     1.51500
Co610      Co  0.00153240  0.01160670  0.57107410     1.51700
Co611      Co  0.04295094  0.50493709  0.97283093     1.51600
Co612      Co  0.42366410  0.95767759  0.51185200     1.51500
O613        O  0.48436824  0.99469451  0.00689988    -1.42100
C614        C  0.39870089  0.54357507  0.97865403     1.09500
C615        C  0.07106178  0.57630834  0.54588288     1.09600
C616        C  0.01401155  0.58008614  0.91417918     1.09500
C617        C  0.39951014  0.52999735  0.58990824     1.09500
O618        O  0.32073767  0.79089374  0.94420791    -0.80100
O619        O  0.29298048  0.76054055  0.56119757    -0.80200
O620        O  0.26450249  0.83522631  0.52570935    -0.80200
O621        O  0.29901435  0.64256826  0.00902543    -0.80100
O622        O  0.22845556  0.81757363  0.59027307    -0.80200
O623        O  0.33315369  0.69394584  0.96501816    -0.80200
O624        O  0.28318856  0.68821929  0.55147142    -0.80100
O625        O  0.26029480  0.83184008  0.93697393    -0.80200
C626        C  0.30307610  0.82562799  0.92980829     1.09600
C627        C  0.30640274  0.72175063  0.56748881     1.09400
C628        C  0.25823917  0.84194806  0.56859697     1.09600
C629        C  0.33222388  0.65427591  0.98273090     1.09500
O630        O  0.25077440  0.67595684  0.91821724    -0.80100
O631        O  0.16387090  0.79892104  0.52748416    -0.80200
O632        O  0.17698621  0.78149863  0.94655914    -0.80100
O633        O  0.20119929  0.64766433  0.54216031    -0.80100
O634        O  0.19429531  0.71997650  0.57400476    -0.80200
O635        O  0.23508828  0.75920412  0.89995552    -0.80100
O636        O  0.21619663  0.65757154  0.97980289    -0.80100
O637        O  0.18871306  0.86310727  0.99623065    -0.80200
Co638      Co  0.28199219  0.73306261  0.93855348     1.51500
Co639      Co  0.23028618  0.77392313  0.54057255     1.51700
Co640      Co  0.22346195  0.80958048  0.98768024     1.51600
Co641      Co  0.23298167  0.68725347  0.50614549     1.51500
O642        O  0.24160239  0.75075831  0.99910496    -1.42100
C643        C  0.22282177  0.65055343  0.93846999     1.09500
C644        C  0.15581630  0.83894727  0.51322839     1.09600
C645        C  0.19207320  0.76664463  0.90775682     1.09500
C646        C  0.18401009  0.67588292  0.57244108     1.09500
O647        O  0.04870933  0.77867073  0.82696988    -0.80100
O648        O  0.49352480  0.80366087  0.64783587    -0.80200
O649        O  0.08145129  0.79186907  0.74350156    -0.80200
O650        O  0.40548759  0.82561652  0.76376752    -0.80100
O651        O  0.07358137  0.77183537  0.67213958    -0.80200
O652        O  0.43679690  0.78914240  0.81856593    -0.80200
O653        O  0.48581046  0.83665586  0.71609698    -0.80100
O654        O  0.10015193  0.72835089  0.80139923    -0.80200
C655        C  0.08830754  0.76004808  0.83041210     1.09600
C656        C  0.49078148  0.83934300  0.67391681     1.09400
C657        C  0.09325203  0.79593415  0.70297933     1.09600
C658        C  0.40950323  0.82011612  0.80501512     1.09500
O659        O  0.43472161  0.69071281  0.78055899    -0.80100
O660        O  0.01825254  0.68707505  0.67075827    -0.80200
O661        O  0.02025339  0.67921029  0.79270091    -0.80100
O662        O  0.41097924  0.78467241  0.67790248    -0.80100
O663        O  0.43905236  0.72174914  0.64388490    -0.80200
O664        O  0.48992080  0.70951484  0.84911806    -0.80100
O665        O  0.39518246  0.73765056  0.74666880    -0.80100
O666        O  0.07715808  0.69679313  0.71409299    -0.80200
Co667      Co  0.48499718  0.73716302  0.79315292     1.51500
Co668      Co  0.00580161  0.75216324  0.67010655     1.51700
Co669      Co  0.04919435  0.73691142  0.76510377     1.51600
Co670      Co  0.44421064  0.78556267  0.73523377     1.51500
O671        O  0.49002817  0.74264324  0.72435714    -1.42100
C672        C  0.39858521  0.69934663  0.76216806     1.09500
C673        C  0.05783365  0.67628449  0.68081062     1.09600
C674        C  0.00859779  0.67640520  0.83491764     1.09500
C675        C  0.40753338  0.75145633  0.64852186     1.09500
O676        O  0.30547418  0.98956982  0.83719174    -0.80100
O677        O  0.29145104  0.51694654  0.67592258    -0.80200
O678        O  0.27844964  0.92778037  0.70233053    -0.80200
O679        O  0.28094592  0.60932233  0.76352228    -0.80100
O680        O  0.24782284  0.94441344  0.63986750    -0.80200
O681        O  0.32200704  0.54774486  0.76378190    -0.80200
O682        O  0.26106336  0.58402827  0.67709412    -0.80100
O683        O  0.27068135  0.93091860  0.79636292    -0.80200
C684        C  0.30002131  0.94703606  0.82588487     1.09600
C685        C  0.29271239  0.55657609  0.66308166     1.09400
C686        C  0.27339730  0.91942303  0.65993592     1.09600
C687        C  0.31984709  0.59090410  0.76354061     1.09500
O688        O  0.24980362  0.56775353  0.83391603    -0.80100
O689        O  0.17448503  0.94299531  0.69833623    -0.80200
O690        O  0.17060556  0.95668592  0.79008025    -0.80100
O691        O  0.16652873  0.55981608  0.71318838    -0.80100
O692        O  0.19735715  0.52610656  0.65271732    -0.80200
O693        O  0.21731529  0.98891794  0.83719935    -0.82100
O694        O  0.19029630  0.58763601  0.79641621    -0.80100
O695        O  0.20223234  0.88723278  0.73481642    -0.80200
Co696      Co  0.26972449  0.51334017  0.79365205     1.51500
Co697      Co  0.23594987  0.98216468  0.69109310     1.51700
Co698      Co  0.22500646  0.94794520  0.74765415     1.51600
Co699      Co  0.22367824  0.58256162  0.73747336     1.51500
O700        O  0.23297794  0.01638422  0.74923643    -1.42100
C701        C  0.21116722  0.58754317  0.83249851     1.09500
C702        C  0.17143398  0.90125644  0.71050618     1.09600
C703        C  0.17872747  0.97063083  0.82922710     1.09500
C704        C  0.16825193  0.55331028  0.67166633     1.09500
C705        C  0.35935982  0.66603652  0.75905801    -0.16400
C706        C  0.36200598  0.62102068  0.76509091    -0.31600
H707        H  0.32676199  0.67944479  0.75058006     0.12600
H708        H  0.39473015  0.60668041  0.77167897     0.13200
C709        C  0.13026896  0.87186028  0.70123762    -0.16400
C710        C  0.13325158  0.82641777  0.69317688    -0.31600
H711        H  0.09655825  0.88715554  0.70567328     0.12600
H712        H  0.16691561  0.81118093  0.68775578     0.13200
C713        C  0.28751427  0.87658172  0.59124527    -0.16400
C714        C  0.29093972  0.87855634  0.63556599    -0.31600
H715        H  0.29454458  0.90725440  0.57338976     0.12600
H716        H  0.28774500  0.84749066  0.65329317     0.13200
C717        C  0.19306727  0.61655640  0.87087593    -0.16400
C718        C  0.20368127  0.61073718  0.91296277    -0.31600
H719        H  0.18091032  0.64952720  0.86294934     0.12600
H720        H  0.21390641  0.57751225  0.92204021     0.13200
C721        C  0.11877826  0.77484687  0.86769076    -0.16400
C722        C  0.16119442  0.75774560  0.86979198    -0.31600
H723        H  0.10549165  0.79828659  0.89449782     0.12600
H724        H  0.17458822  0.73572611  0.84184408     0.13200
C725        C  0.36700771  0.75142210  0.61916466    -0.16400
C726        C  0.34856936  0.71597968  0.59387215    -0.31600
H727        H  0.34969388  0.78386285  0.62017672     0.12600
H728        H  0.36335222  0.68238837  0.59373622     0.13200
C729        C  0.37015292  0.62200984  0.97466597    -0.16400
C730        C  0.36226949  0.57743466  0.98230036    -0.31600
H731        H  0.40386827  0.63429933  0.96234539     0.12600
H732        H  0.32775159  0.56529282  0.99255343     0.13200
C733        C  0.11079562  0.86309872  0.52094189    -0.16400
C734        C  0.10818921  0.90567556  0.54214637    -0.31600
H735        H  0.08215712  0.84996738  0.50135012     0.12600
H736        H  0.12709331  0.92177394  0.07092282     0.13200
C737        C  0.09946361  0.96424797  0.86509881    -0.16400
C738        C  0.14561798  0.96709685  0.86732447    -0.31600
H739        H  0.08324584  0.95615284  0.83380264     0.12600
H740        H  0.16033180  0.97473893  0.89954413     0.13200
C741        C  0.36993330  0.54467885  0.62958683    -0.16400
C742        C  0.32990676  0.56695746  0.62890363    -0.31600
H743        H  0.37999045  0.01773505  0.65911834     0.12600
H744        H  0.32182773  0.58506528  0.60005266     0.13200
C745        C  0.48667760  0.88258295  0.65248097    -0.16400
C746        C  0.47403862  0.88034311  0.60949752    -0.31600
H747        H  0.49121347  0.91519789  0.67165334     0.12600
H748        H  0.46775940  0.84724176  0.59159231     0.13200
C749        C  0.01859392  0.62580367  0.89653412    -0.16400
C750        C  0.00841693  0.63167027  0.85402756    -0.31600
H751        H  0.02952054  0.65495601  0.91863564     0.12600
H752        H  0.00089423  0.60182912  0.83128137     0.13200
C753        C  0.83045619  0.41405474  0.34680493     0.86500
C754        C  0.80252228  0.38744672  0.37986287    -0.53700
C755        C  0.82711276  0.35785702  0.40162069     0.09400
C756        C  0.88028919  0.35972830  0.38856782     0.20400
C757        C  0.86793242  0.43869897  0.37264702    -0.54500
C758        C  0.89447386  0.41198332  0.39511830     0.09500
C759        C  0.85515747  0.37934780  0.31592044    -0.54000
C760        C  0.88179389  0.34991695  0.33646947     0.10100
H761        H  0.76519439  0.39043905  0.38372081     0.14600
H762        H  0.90120547  0.33660768  0.40653380     0.00300
H763        H  0.87246251  0.47557637  0.37398346     0.14900
H764        H  0.85150712  0.37890170  0.27996051     0.14700
C765        C  0.64771776  0.07520338  0.14250967     0.86500
C766        C  0.61340016  0.10321373  0.17272687    -0.53700
C767        C  0.59126798  0.13369800  0.15112048     0.09400
C768        C  0.60387365  0.13332687  0.10049063     0.20400
C769        C  0.62076145  0.05298627  0.10483617    -0.54500
C770        C  0.59799511  0.08328843  0.08236970     0.09500
C771        C  0.67961481  0.11039451  0.12027332    -0.54000
C772        C  0.65649096  0.14099901  0.09824371     0.10100
H773        H  0.60811656  0.10092584  0.20869949     0.14600
H774        H  0.58486624  0.15799790  0.08244658     0.00300
H775        H  0.62119788  0.01657648  0.09611713     0.14900
H776        H  0.71696870  0.11098505  0.12108156     0.14700
O777        O  0.52606343  0.47405437  0.40884773    -0.80100
O778        O  0.97484513  0.45986518  0.10212400    -0.80200
O779        O  0.55437042  0.44708190  0.49256754    -0.80200
O780        O  0.93993789  0.42260808  0.45991036    -0.80100
O781        O  0.55979382  0.47319542  0.06312507    -0.80200
O782        O  0.93721503  0.47889027  0.41755939    -0.80200
O783        O  0.95412916  0.41281220  0.04531421    -0.80100
O784        O  0.58931329  0.50756269  0.43230278    -0.80200
C785        C  0.56999706  0.48254977  0.40269207     1.09600
C786        C  0.96751653  0.41982684  0.08484272     1.09400
C787        C  0.57438935  0.44406997  0.03199655     1.09600
C788        C  0.92797816  0.43737388  0.42429037     1.09500
O789        O  0.94012783  0.05815113  0.47169266    -0.80100
O790        O  0.52763786  0.06992023  0.04961186    -0.80200
O791        O  0.53156631  0.07311398  0.45159725    -0.80100
O792        O  0.89860781  0.48980382  0.07269199    -0.80100
O793        O  0.94533855  0.54934990  0.08507149    -0.80200
O794        O  0.99219960  0.04708668  0.39346577    -0.80100
O795        O  0.88715154  0.00367366  0.48221743    -0.80100
O796        O  0.58616050  0.03811043  0.01635374    -0.80200
Co797      Co  0.98573466  0.01434235  0.44596629     1.51500
Co798      Co  0.50139023  0.51136951  0.06975642     1.51700
Co799      Co  0.54377474  0.00744933  0.47326305     1.51600
Co800      Co  0.92259899  0.45882116  0.01434118     1.51500
O801        O  0.98370042  0.50087172  0.50950150    -1.42100
C802        C  0.89845692  0.04560071  0.47799118     1.09500
C803        C  0.57031537  0.06721694  0.04523170     1.09600
C804        C  0.51517470  0.08143333  0.41359057     1.09500
C805        C  0.90497210  0.03266649  0.09231400     1.09500
O806        O  0.81567377  0.28952375  0.44206512    -0.80100
O807        O  0.74840353  0.24661773  0.10111702    -0.80200
O808        O  0.78358835  0.32401116  0.01992291    -0.80200
O809        O  0.80093266  0.14496742  0.50998714    -0.80100
O810        O  0.73163703  0.32903769  0.07507160    -0.80200
O811        O  0.82814110  0.19267149  0.45871283    -0.80200
O812        O  0.80144637  0.23256447  0.04797598    -0.80100
O813        O  0.75687324  0.33246189  0.43518167    -0.80200
C814        C  0.79963658  0.32530268  0.42841958     1.09600
C815        C  0.79086162  0.24260817  0.08884362     1.09400
C816        C  0.77156038  0.33902710  0.05901881     1.09600
C817        C  0.83105110  0.15544807  0.48013836     1.09500
O818        O  0.74307441  0.17704347  0.41385192    -0.80100
O819        O  0.64454844  0.29856204  0.03794339    -0.80200
O820        O  0.67117841  0.28391394  0.44372194    -0.80100
O821        O  0.72351444  0.17198708  0.06378432    -0.80100
O822        O  0.66090821  0.21163538  0.06435932    -0.80200
O823        O  0.72819469  0.26074904  0.39671335    -0.80100
O824        O  0.71930228  0.15177987  0.47716377    -0.80100
O825        O  0.68503829  0.36157807  0.49870879    -0.80200
Co826      Co  0.77558814  0.23273899  0.43462587     1.51500
Co827      Co  0.69755718  0.26959636  0.06461279     1.51700
Co828      Co  0.71985845  0.30798597  0.48516066     1.51600
Co829      Co  0.75609216  0.19635581  0.01056236     1.51500
O830        O  0.73485116  0.24751143  0.49538823    -1.42100
C831        C  0.72132990  0.14765619  0.43521738     1.09500
C832        C  0.64988904  0.33805553  0.02346888     1.09600
C833        C  0.68534444  0.26980942  0.40446038     1.09500
C834        C  0.68100910  0.17640347  0.07381526     1.09500
O835        O  0.53996333  0.27767087  0.31803338    -0.80100
O836        O  0.99136139  0.30221357  0.14866529    -0.80200
O837        O  0.57205807  0.29044710  0.23103270    -0.80200
O838        O  0.90166036  0.31936796  0.26505499    -0.80100
O839        O  0.57484197  0.26249438  0.16137827    -0.80200
O840        O  0.93623681  0.28565520  0.31968547    -0.80200
O841        O  0.98123366  0.33430143  0.21694900    -0.80100
O842        O  0.59821000  0.23496165  0.29363914    -0.80200
C843        C  0.58182622  0.26382110  0.32309754     1.09600
C844        C  0.98718874  0.33759332  0.17499927     1.09400
C845        C  0.58924290  0.29117050  0.19166637     1.09600
C846        C  0.90800942  0.31589678  0.30637456     1.09500
O847        O  0.93514116  0.18643133  0.28031263    -0.80100
O848        O  0.52518152  0.17563689  0.16125207    -0.80200
O849        O  0.52592491  0.17550230  0.28801855    -0.80100
O850        O  0.90775176  0.27789402  0.17714210    -0.80100
O851        O  0.94268088  0.21766357  0.14451797    -0.80200
O852        O  0.99015058  0.20570401  0.34903455    -0.80100
O853        O  0.89472390  0.23224637  0.24604440    -0.80100
O854        O  0.58017141  0.19191747  0.20906215    -0.80200
Co855      Co  0.98445070  0.23397227  0.29352102     1.51500
Co856      Co  0.50841045  0.23803364  0.15749063     1.51700
Co857      Co  0.54726639  0.23355792  0.25592880     1.51600
Co858      Co  0.94172732  0.28136552  0.23503664     1.51500
O859        O  0.99015025  0.24049135  0.22475279    -1.42100
C860        C  0.89892778  0.19424477  0.26157033     1.09500
C861        C  0.56370157  0.16810945  0.17584670     1.09600
C862        C  0.51052563  0.17385857  0.32945144     1.09500
C863        C  0.90855825  0.24412796  0.14778851     1.09500
O864        O  0.80730252  0.48757774  0.33406492    -0.80100
O865        O  0.79430041  0.00859158  0.17190777    -0.80200
O866        O  0.77990598  0.42001010  0.19772132    -0.80200
O867        O  0.78217103  0.10323226  0.25949479    -0.80100
O868        O  0.74915093  0.43555084  0.13467729    -0.80200
O869        O  0.82410339  0.04222378  0.26055260    -0.80200
O870        O  0.76238023  0.07553921  0.17400259    -0.80100
O871        O  0.77327082  0.42769313  0.29397288    -0.80200
C872        C  0.80218461  0.44490129  0.32361630     1.09600
C873        C  0.79433231  0.04859717  0.15965775     1.09400
C874        C  0.77614965  0.41199965  0.15477998     1.09600
C875        C  0.82139669  0.08525540  0.26002426     1.09500
O876        O  0.75190230  0.06388562  0.33044889    -0.80100
O877        O  0.67635031  0.43427556  0.19523500    -0.80200
O878        O  0.67209816  0.45258494  0.28722086    -0.80100
O879        O  0.66931473  0.04874304  0.20939450    -0.80100
O880        O  0.70081258  0.01568975  0.14902720    -0.80200
O881        O  0.71873323  0.48575574  0.33375635    -0.82100
O882        O  0.69137121  0.08054833  0.29288339    -0.80100
O883        O  0.70406537  0.38050467  0.23438892    -0.80200
Co884      Co  0.77235878  0.00869178  0.29148896     1.51500
Co885      Co  0.73725266  0.47435253  0.18597608     1.51700
Co886      Co  0.72685924  0.44174181  0.24442286     1.51600
Co887      Co  0.72508185  0.07478741  0.23394465     1.51500
O888        O  0.73534520  0.50967827  0.24416012    -1.42100
C889        C  0.71254280  0.08224381  0.32894600     1.09500
C890        C  0.67292767  0.39348329  0.20989111     1.09600
C891        C  0.67948814  0.46882656  0.32597486     1.09500
C892        C  0.67193656  0.04302140  0.16773677     1.09500
C893        C  0.86015662  0.16064517  0.25799351    -0.16400
C894        C  0.86331471  0.11551096  0.26231043    -0.31600
H895        H  0.82726768  0.17410289  0.25025153     0.12600
H896        H  0.89629320  0.10113519  0.26813991     0.13200
C897        C  0.63002456  0.36525269  0.20541338    -0.16400
C898        C  0.62831353  0.32386089  0.18287837    -0.31600
H899        H  0.59998276  0.37679315  0.22581138     0.12600
H900        H  0.65724549  0.31271821  0.16069871     0.13200
C901        C  0.80090319  0.37234638  0.08434441    -0.16400
C902        C  0.79873915  0.37353869  0.12940832    -0.31600
H903        H  0.80813092  0.40395810  0.06823852     0.12600
H904        H  0.79495819  0.34165001  0.14554139     0.13200
C905        C  0.69371597  0.11135802  0.36706081    -0.16400
C906        C  0.70454160  0.10667378  0.40945643    -0.31600
H907        H  0.68026408  0.14356576  0.35859841     0.12600
H908        H  0.71564820  0.07406563  0.41918152     0.13200
C909        C  0.61051929  0.27906862  0.36260117    -0.16400
C910        C  0.65388505  0.26303336  0.36583212    -0.31600
H911        H  0.59520369  0.30087346  0.38994419     0.12600
H912        H  0.66837600  0.24222139  0.33731918     0.13200
C913        C  0.87126609  0.23616789  0.11503071    -0.16400
C914        C  0.82727624  0.24989004  0.12267832    -0.31600
H915        H  0.88038861  0.21708604  0.08349533     0.12600
H916        H  0.81723202  0.26600673  0.15538421     0.13200
C917        C  0.86954991  0.12385040  0.47143552    -0.16400
C918        C  0.86225644  0.07961192  0.48056998    -0.31600
H919        H  0.90275174  0.13609892  0.45794355     0.12600
H920        H  0.82794746  0.06767303  0.49153912     0.13200
C921        C  0.61012509  0.36799883  0.02043467    -0.16400
C922        C  0.60818819  0.40971478  0.04213567    -0.31600
H923        H  0.58337086  0.35664399  0.99765378     0.12600
H924        H  0.62348786  0.42076451  0.56923179     0.13200
C925        C  0.59854073  0.46493042  0.36267981    -0.16400
C926        C  0.64495150  0.47021931  0.36403359    -0.31600
H927        H  0.58244120  0.45317706  0.33216122     0.12600
H928        H  0.65937491  0.48160103  0.39555259     0.13200
C929        C  0.87381701  0.04883995  0.13012061    -0.16400
C930        C  0.83002862  0.06057878  0.12518427    -0.31600
H931        H  0.88560966  0.53320489  0.16318603     0.12600
H932        H  0.81906425  0.06887991  0.09277427     0.13200
C933        C  0.98386220  0.38136515  0.15416737    -0.16400
C934        C  0.97371683  0.38012036  0.11055527    -0.31600
H935        H  0.98696057  0.41371312  0.17431650     0.12600
H936        H  0.96864300  0.34721995  0.09174074     0.13200
C937        C  0.51926874  0.12687030  0.39487434    -0.16400
C938        C  0.51257549  0.13045860  0.35104158    -0.31600
H939        H  0.52640657  0.15701788  0.41674022     0.12600
H940        H  0.50906388  0.09964469  0.32914386     0.13200
C941        C  0.83389798  0.41841973  0.84034360     0.86500
C942        C  0.80414413  0.39467665  0.87445656    -0.53700
C943        C  0.82691208  0.36517707  0.89790906     0.09400
C944        C  0.87966823  0.36277964  0.88462349     0.20400
C945        C  0.87272845  0.44155874  0.86527876    -0.54500
C946        C  0.89639569  0.41394037  0.88975449     0.09500
C947        C  0.85633913  0.38121894  0.81089071    -0.54000
C948        C  0.88131942  0.35126785  0.83270253     0.10100
H949        H  0.76718314  0.40001792  0.87857906     0.14600
H950        H  0.89891366  0.33931992  0.90381132     0.00300
H951        H  0.87922533  0.47816945  0.86561985     0.14900
H952        H  0.85316559  0.38007968  0.77487908     0.14700
C953        C  0.64967210  0.07664164  0.64039057     0.86500
C954        C  0.61739063  0.10679351  0.67081225    -0.53700
C955        C  0.59541405  0.13728627  0.64890216     0.09400
C956        C  0.60650774  0.13507794  0.59789018     0.20400
C957        C  0.62065960  0.05443818  0.60439390    -0.54500
C958        C  0.59830207  0.08474651  0.58166226     0.09500
C959        C  0.68199770  0.11004677  0.61610562    -0.54000
C960        C  0.65934690  0.14102725  0.59390202     0.10100
H961        H  0.61286281  0.10536534  0.70693952     0.14600
H962        H  0.58775591  0.15977486  0.57964977     0.00300
H963        H  0.61955267  0.01781953  0.59679164     0.14900
H964        H  0.71938757  0.10933419  0.61605764     0.14700
O965        O  0.53479422  0.47257494  0.90868198    -0.80100
O966        O  0.97392682  0.46731992  0.60412917    -0.80200
O967        O  0.56394828  0.44688799  0.99165536    -0.80200
O968        O  0.93615910  0.42066673  0.95793929    -0.80100
O969        O  0.55111897  0.47472042  0.56366620    -0.80200
O970        O  0.93552834  0.47947956  0.91840466    -0.80200
O971        O  0.95726195  0.41902376  0.54713389    -0.80100
O972        O  0.59702091  0.50868365  0.93207108    -0.80200
C973        C  0.57834272  0.48268231  0.90267333     1.09600
C974        C  0.96915995  0.42688436  0.58696155     1.09400
C975        C  0.56534002  0.44495618  0.53283546     1.09600
C976        C  0.92641852  0.43769714  0.92261460     1.09500
O977        O  0.93761232  0.06411246  0.97264617    -0.80100
O978        O  0.52722381  0.07082750  0.55028965    -0.80200
O979        O  0.53272615  0.07220024  0.95009930    -0.80100
O980        O  0.89817278  0.49473468  0.57142359    -0.80100
O981        O  0.94312936  0.55570088  0.58416304    -0.80200
O982        O  0.98928340  0.05233706  0.89387783    -0.80100
O983        O  0.88493556  0.00962241  0.98513504    -0.80100
O984        O  0.58541929  0.03868927  0.51672012    -0.80200
Co985      Co  0.98267010  0.01993566  0.94684905     1.51500
Co986      Co  0.49373778  0.51488414  0.57032738     1.51700
Co987      Co  0.54483192  0.00656324  0.97247936     1.51600
Co988      Co  0.92435840  0.46246859  0.51468198     1.51500
O989        O  0.98342236  0.49448713  0.00864069    -1.42100
C990        C  0.89613491  0.05159683  0.98021926     1.09500
C991        C  0.56989454  0.06816712  0.54533650     1.09600
C992        C  0.51602258  0.08085624  0.91221504     1.09500
C993        C  0.90685666  0.02939265  0.58916640     1.09500
O994        O  0.81107982  0.29884604  0.94065559    -0.80100
O995        O  0.75174694  0.24594485  0.59717329    -0.80200
O996        O  0.77330432  0.33361834  0.51788011    -0.80200
O997        O  0.79472215  0.14780402  0.00843440    -0.80100
O998        O  0.73211519  0.32790645  0.57797828    -0.80200
O999        O  0.82668866  0.20152406  0.96671802    -0.80200
O1000       O  0.80731942  0.23107970  0.54618144    -0.80100
O1001       O  0.75909868  0.35313986  0.94194251    -0.80200
C1002       C  0.79848423  0.33796118  0.92880420     1.09600
C1003       C  0.79482203  0.24298047  0.58620447     1.09400
C1004       C  0.76738481  0.34397396  0.55843032     1.09600
C1005       C  0.82779970  0.16149374  0.98340934     1.09500
O1006       O  0.74728159  0.17883351  0.91723866    -0.80100
O1007       O  0.64851063  0.30419405  0.53285487    -0.80200
O1008       O  0.68148412  0.29586466  0.93616212    -0.80100
O1009       O  0.72804492  0.17209343  0.56268794    -0.80100
O1010       O  0.66541490  0.21000057  0.55558194    -0.80200
O1011       O  0.73146443  0.25944957  0.89359658    -0.80100
O1012       O  0.71196716  0.15546191  0.97661903    -0.80100
O1013       O  0.68960718  0.35125669  0.00904263    -0.80200
Co1014     Co  0.77323513  0.23757896  0.93958254     1.51500
Co1015     Co  0.70153139  0.26887964  0.55941129     1.51700
Co1016     Co  0.73413946  0.30772659  0.97692375     1.51600
Co1017     Co  0.76338738  0.19375590  0.50975330     1.51500
O1018       O  0.72363322  0.24956413  0.99990113    -1.42100
C1019       C  0.72104131  0.15026135  0.93521425     1.09500
C1020       C  0.64879345  0.34525755  0.51851751     1.09600
C1021       C  0.69173007  0.27611593  0.89874297     1.09500
C1022       C  0.68488805  0.17584849  0.56899198     1.09500
O1023       O  0.54268160  0.27971698  0.81669426    -0.80100
O1024       O  0.99335158  0.30835993  0.64861096    -0.80200
O1025       O  0.57313039  0.29280031  0.73088319    -0.80200
O1026       O  0.90049628  0.31847253  0.76226469    -0.80100
O1027       O  0.57653228  0.26699344  0.66062879    -0.80200
O1028       O  0.93764103  0.28794566  0.81703790    -0.80200
O1029       O  0.98089484  0.33772485  0.71761868    -0.80100
O1030       O  0.60090315  0.23708350  0.79220086    -0.80200
C1031       C  0.58504692  0.26678400  0.82107628     1.09600
C1032       C  0.98781271  0.34275661  0.67602869     1.09400
C1033       C  0.59038081  0.29480400  0.69170007     1.09600
C1034       C  0.90771339  0.31651482  0.80350734     1.09500
O1035       O  0.93785584  0.18825212  0.77766733    -0.80100
O1036       O  0.52943165  0.17969420  0.65787784    -0.80200
O1037       O  0.52926046  0.17630429  0.78642505    -0.80100
O1038       O  0.90994388  0.28080135  0.67480628    -0.80100
O1039       O  0.94658712  0.22236107  0.64111401    -0.80200
O1040       O  0.99252357  0.20876164  0.84611515    -0.80100
O1041       O  0.89729293  0.23188948  0.74124585    -0.80100
O1042       O  0.58323642  0.19486604  0.70730940    -0.80200
Co1043     Co  0.98682932  0.23681640  0.79076758     1.51500
Co1044     Co  0.51083890  0.24190686  0.65619175     1.51700
Co1045     Co  0.54959572  0.23512269  0.75482661     1.51600
Co1046     Co  0.94276491  0.28278336  0.73292288     1.51500
O1047       O  0.99266438  0.24358098  0.72190752    -1.42100
C1048       C  0.90202771  0.19442192  0.75757042     1.09500
C1049       C  0.56757985  0.17184055  0.67322972     1.09600
C1050       C  0.51412769  0.17428943  0.82795746     1.09500
C1051       C  0.91157132  0.24748341  0.64519680     1.09500
O1052       O  0.81462350  0.49276116  0.82449242    -0.80100
O1053       O  0.79499083  0.00677379  0.66778592    -0.80200
O1054       O  0.77959887  0.42533722  0.69398024    -0.80200
O1055       O  0.78617975  0.10240683  0.75482679    -0.80100
O1056       O  0.74338922  0.43661448  0.63269827    -0.80200
O1057       O  0.82748220  0.04106120  0.75570388    -0.80200
O1058       O  0.76436390  0.07428625  0.66983880    -0.80100
O1059       O  0.77637548  0.43279229  0.78892788    -0.80200
C1060       C  0.80736859  0.44992903  0.81624246     1.09600
C1061       C  0.79558089  0.04664501  0.65519052     1.09400
C1062       C  0.77354739  0.41572410  0.65178838     1.09600
C1063       C  0.82523142  0.08420384  0.75532240     1.09500
O1064       O  0.75696538  0.06343312  0.82705996    -0.80100
O1065       O  0.67396470  0.43769098  0.69646929    -0.80200
O1066       O  0.67592161  0.45726367  0.78650506    -0.80100
O1067       O  0.67148647  0.04976904  0.70721493    -0.80100
O1068       O  0.70096798  0.01517997  0.64660456    -0.80200
O1069       O  0.72497964  0.49143317  0.83022841    -0.82100
O1070       O  0.69621923  0.08149197  0.79033163    -0.80100
O1071       O  0.70578147  0.38486873  0.73369271    -0.80200
Co1072     Co  0.77563598  0.00777566  0.78740942     1.51500
Co1073     Co  0.73377717  0.47730807  0.68304893     1.51700
Co1074     Co  0.72810704  0.44640807  0.74165615     1.51600
Co1075     Co  0.72831834  0.07455903  0.73057715     1.51500
O1076       O  0.73510656  0.51424445  0.74022043    -1.42100
C1077       C  0.71838960  0.08344867  0.82587594     1.09500
C1078       C  0.67261546  0.39711510  0.71132778     1.09600
C1079       C  0.68556800  0.47374088  0.82455020     1.09500
C1080       C  0.67340315  0.04380881  0.66556314     1.09500
C1081       C  0.86400684  0.15978887  0.75338021    -0.16400
C1082       C  0.86729447  0.11460114  0.75796800    -0.31600
H1083       H  0.83119539  0.17274601  0.74485175     0.12600
H1084       H  0.90014573  0.10046968  0.76450118     0.13200
C1085       C  0.63052198  0.36800802  0.70891225    -0.16400
C1086       C  0.62852054  0.32833024  0.68370776    -0.31600
H1087       H  0.60166538  0.37754651  0.73199451     0.12600
H1088       H  0.65629204  0.31944144  0.65913874     0.13200
C1089       C  0.79777388  0.37767060  0.58152815    -0.16400
C1090       C  0.79832279  0.37911165  0.62626007    -0.31600
H1091       H  0.80331072  0.40931308  0.56492798     0.12600
H1092       H  0.79746050  0.34719142  0.64263817     0.13200
C1093       C  0.70218968  0.11538526  0.86307656    -0.16400
C1094       C  0.70741934  0.10966632  0.90667533    -0.31600
H1095       H  0.69313857  0.14883195  0.85342532     0.12600
H1096       H  0.71422424  0.07627329  0.91769452     0.13200
C1097       C  0.61516544  0.28423019  0.85895020    -0.16400
C1098       C  0.65952635  0.27006485  0.86054318    -0.31600
H1099       H  0.59996861  0.30537785  0.88686821     0.12600
H1100       H  0.67348368  0.24932570  0.83170167     0.13200
C1101       C  0.87412594  0.23816623  0.61325181    -0.16400
C1102       C  0.83019803  0.25207438  0.62052159    -0.31600
H1103       H  0.88317667  0.21796200  0.58254549     0.12600
H1104       H  0.81990856  0.26963387  0.65231826     0.13200
C1105       C  0.86719640  0.13060332  0.97579718    -0.16400
C1106       C  0.85989592  0.08569566  0.98289185    -0.31600
H1107       H  0.90086805  0.14377388  0.96462809     0.12600
H1108       H  0.82538369  0.07301058  0.99204743     0.13200
C1109       C  0.60571861  0.37123617  0.51825680    -0.16400
C1110       C  0.59986965  0.41107842  0.54294284    -0.31600
H1111       H  0.58140636  0.36060045  0.49285099     0.12600
H1112       H  0.63337795  0.41965992  0.06698903     0.13200
C1113       C  0.60701251  0.46611016  0.86293182    -0.16400
C1114       C  0.65293903  0.47428078  0.86354563    -0.31600
H1115       H  0.59084997  0.45279925  0.83256253     0.12600
H1116       H  0.66790135  0.48716005  0.89473079     0.13200
C1117       C  0.87524696  0.04731016  0.62597871    -0.16400
C1118       C  0.83117253  0.05761553  0.62020257    -0.31600
H1119       H  0.88084575  0.54325954  0.65984485     0.12600
H1120       H  0.82004572  0.06307071  0.58704753     0.13200
C1121       C  0.98406329  0.38741792  0.65661869    -0.16400
C1122       C  0.97676871  0.38725646  0.61240136    -0.31600
H1123       H  0.98411808  0.41903028  0.67793931     0.12600
H1124       H  0.97482673  0.35485374  0.59237895     0.13200
C1125       C  0.52080432  0.12645439  0.89351593    -0.16400
C1126       C  0.51580980  0.13044611  0.84933455    -0.31600
H1127       H  0.52709719  0.15632312  0.91563244     0.12600
H1128       H  0.51308616  0.09988439  0.82728026     0.13200
C1129       C  0.83378073  0.91381631  0.34118910     0.86500
C1130       C  0.80454695  0.88992694  0.37517673    -0.53700
C1131       C  0.82737495  0.86045812  0.39839489     0.09400
C1132       C  0.88030998  0.85837465  0.38481973     0.20400
C1133       C  0.87274604  0.93720097  0.36588364    -0.54500
C1134       C  0.89702644  0.90972909  0.38990395     0.09500
C1135       C  0.85623513  0.87696508  0.31130224    -0.54000
C1136       C  0.88173249  0.84713446  0.33272573     0.10100
H1137       H  0.76752596  0.89515719  0.37924540     0.14600
H1138       H  0.89979971  0.83489873  0.40376283     0.00300
H1139       H  0.87914541  0.97382723  0.36611769     0.14900
H1140       H  0.85273431  0.87600172  0.27532203     0.14700
C1141       C  0.64900201  0.57409057  0.14220951     0.86500
C1142       C  0.61453062  0.60203716  0.17249721    -0.53700
C1143       C  0.59224748  0.63243112  0.15088229     0.09400
C1144       C  0.60466000  0.63194476  0.10029950     0.20400
C1145       C  0.62200252  0.55167495  0.10462900    -0.54500
C1146       C  0.59894389  0.58191774  0.08229166     0.09500
C1147       C  0.68060377  0.60945549  0.11994062    -0.54000
C1148       C  0.65715149  0.63991691  0.09798074     0.10100
H1149       H  0.60941276  0.59993557  0.20852059     0.14600
H1150       H  0.58549513  0.65648300  0.08224058     0.00300
H1151       H  0.62258853  0.51536354  0.09591663     0.14900
H1152       H  0.71792975  0.61032076  0.12088615     0.14700
O1153       O  0.53237585  0.97280288  0.41033555    -0.80100
O1154       O  0.97165143  0.96300396  0.10325378    -0.80200
O1155       O  0.56123793  0.94793355  0.49313207    -0.80200
O1156       O  0.93762986  0.91766542  0.45758258    -0.80100
O1157       O  0.55864683  0.97415434  0.06373118    -0.80200
O1158       O  0.93834008  0.97537296  0.41635794    -0.80200
O1159       O  0.95194133  0.91652591  0.04589296    -0.80100
O1160       O  0.59551916  0.00801698  0.43245084    -0.80200
C1161       C  0.57604484  0.98177165  0.40370868     1.09600
C1162       C  0.96473368  0.92306595  0.08559254     1.09400
C1163       C  0.57276946  0.94431428  0.03292452     1.09600
C1164       C  0.92830702  0.93380893  0.42168529     1.09500
O1165       O  0.93666563  0.56327384  0.47058342    -0.80100
O1166       O  0.52862368  0.56852424  0.04931416    -0.80200
O1167       O  0.52512225  0.57226806  0.45089817    -0.80100
O1168       O  0.89600122  0.99418919  0.07202118    -0.80100
O1169       O  0.94345225  0.05295211  0.08585006    -0.80200
O1170       O  0.99050323  0.55131057  0.39297770    -0.80100
O1171       O  0.88616342  0.50723975  0.48445585    -0.80100
O1172       O  0.58722321  0.53734011  0.01598730    -0.80200
Co1173     Co  0.98404583  0.52014013  0.44633746     1.51500
Co1174     Co  0.50026422  0.01302388  0.07060610     1.51700
Co1175     Co  0.53721977  0.50663716  0.47256606     1.51600
Co1176     Co  0.92107474  0.96242592  0.01431192     1.51500
O1177       O  0.98413988  0.99236023  0.50800812    -1.42100
C1178       C  0.89560341  0.54946469  0.47913255     1.09500
C1179       C  0.57130781  0.56601676  0.04510414     1.09600
C1180       C  0.50828479  0.58119723  0.41325323     1.09500
C1181       C  0.90731102  0.52850333  0.09254490     1.09500
O1182       O  0.80936955  0.79359535  0.44008476    -0.80100
O1183       O  0.74889599  0.74590135  0.09990704    -0.80200
O1184       O  0.78321532  0.82314507  0.01894851    -0.80200
O1185       O  0.78886438  0.64335792  0.50845914    -0.80100
O1186       O  0.73135541  0.82837007  0.07410281    -0.80200
O1187       O  0.82187510  0.69758504  0.46816209    -0.80200
O1188       O  0.80132127  0.73041723  0.04635693    -0.80100
O1189       O  0.75876666  0.84897184  0.44137410    -0.80200
C1190       C  0.79804309  0.83322786  0.42870239     1.09600
C1191       C  0.79119358  0.74123450  0.08714047     1.09400
C1192       C  0.77098798  0.83879931  0.05773811     1.09600
C1193       C  0.82269197  0.65739951  0.48435148     1.09500
O1194       O  0.74256124  0.67489968  0.41798484    -0.80100
O1195       O  0.64424842  0.79847969  0.03776807    -0.80200
O1196       O  0.67940451  0.79403080  0.43518764    -0.80100
O1197       O  0.72361527  0.67090055  0.06311392    -0.80100
O1198       O  0.66101491  0.71071178  0.06419162    -0.80200
O1199       O  0.72867996  0.75564038  0.39347514    -0.80100
O1200       O  0.70547920  0.65345871  0.47716662    -0.80100
O1201       O  0.68863852  0.85013870  0.50723301    -0.80200
Co1202     Co  0.76951013  0.73349387  0.43984119     1.51500
Co1203     Co  0.69755408  0.76886194  0.06399467     1.51700
Co1204     Co  0.73177092  0.80442368  0.47605241     1.51600
Co1205     Co  0.75545187  0.69457608  0.00944228     1.51500
O1206       O  0.71910844  0.74690917  0.49931061    -1.42100
C1207       C  0.71486938  0.64760696  0.43605633     1.09500
C1208       C  0.64966418  0.83791621  0.02284753     1.09600
C1209       C  0.68946717  0.77339322  0.39821338     1.09500
C1210       C  0.68125457  0.67544189  0.07350362     1.09500
O1211       O  0.54149602  0.77804191  0.31616531    -0.80100
O1212       O  0.99123716  0.80357715  0.14597094    -0.80200
O1213       O  0.57338069  0.78993992  0.23011176    -0.80200
O1214       O  0.90034683  0.81451511  0.26184474    -0.80100
O1215       O  0.57713307  0.76205188  0.16058361    -0.80200
O1216       O  0.93875871  0.78464305  0.31615521    -0.80200
O1217       O  0.97994274  0.83337464  0.21504296    -0.80100
O1218       O  0.59940813  0.73458870  0.29243397    -0.80200
C1219       C  0.58361223  0.76475227  0.32083697     1.09600
C1220       C  0.98592721  0.83810818  0.17331347     1.09400
C1221       C  0.59114893  0.79063201  0.19101256     1.09600
C1222       C  0.90822327  0.81276864  0.30302511     1.09500
O1223       O  0.93804426  0.68517697  0.27794875    -0.80100
O1224       O  0.52711088  0.67556864  0.16008607    -0.80200
O1225       O  0.52674745  0.67521557  0.28744318    -0.80100
O1226       O  0.90840734  0.77582236  0.17377237    -0.80100
O1227       O  0.94487811  0.71735129  0.13964501    -0.80200
O1228       O  0.99443188  0.70630322  0.34454548    -0.80100
O1229       O  0.89711875  0.72797103  0.24098094    -0.80100
O1230       O  0.58149790  0.69105937  0.20857021    -0.80200
Co1231     Co  0.98757191  0.73360377  0.28923070     1.51500
Co1232     Co  0.51075390  0.73809177  0.15666262     1.51700
Co1233     Co  0.54848661  0.73304038  0.25504367     1.51600
Co1234     Co  0.94221666  0.77867793  0.23149489     1.51500
O1235       O  0.99207426  0.73953386  0.22010938    -1.42100
C1236       C  0.90190285  0.69107648  0.25828497     1.09500
C1237       C  0.56508739  0.66733054  0.17531342     1.09600
C1238       C  0.51083710  0.67385314  0.32876397     1.09500
C1239       C  0.90976708  0.74253352  0.14403076     1.09500
O1240       O  0.81145683  0.98776979  0.32932418    -0.80100
O1241       O  0.79619879  0.50701864  0.17333129    -0.80200
O1242       O  0.77964105  0.92154476  0.19539209    -0.80200
O1243       O  0.78463503  0.60146261  0.25924825    -0.80100
O1244       O  0.74736289  0.93676205  0.13321585    -0.80200
O1245       O  0.82484974  0.53969414  0.26374700    -0.80200
O1246       O  0.76480838  0.57392154  0.17369630    -0.80100
O1247       O  0.77580978  0.92817916  0.29007711    -0.80200
C1248       C  0.80615136  0.94517308  0.31833793     1.09600
C1249       C  0.79688964  0.54678669  0.16040804     1.09400
C1250       C  0.77512976  0.91347501  0.15267942     1.09600
C1251       C  0.82330556  0.58266641  0.26132092     1.09500
O1252       O  0.75144374  0.56470726  0.33091811    -0.80100
O1253       O  0.67542448  0.93527769  0.19493489    -0.80200
O1254       O  0.67405858  0.95219039  0.28731277    -0.80100
O1255       O  0.67120854  0.54865012  0.20907900    -0.80100
O1256       O  0.70260645  0.51471287  0.14917555    -0.80200
O1257       O  0.72254763  0.98402716  0.33286543    -0.82100
O1258       O  0.69244649  0.58148772  0.29161202    -0.80100
O1259       O  0.70460175  0.88102005  0.23240961    -0.80200
Co1260     Co  0.77091358  0.50818785  0.29374145     1.51500
Co1261     Co  0.73594912  0.97538395  0.18507066     1.51700
Co1262     Co  0.72727614  0.94230782  0.24288509     1.51600
Co1263     Co  0.72712527  0.57414589  0.23345747     1.51500
O1264       O  0.73473786  0.01029046  0.24352613    -1.42100
C1265       C  0.71264788  0.58361971  0.32812095     1.09500
C1266       C  0.67278563  0.89419546  0.20878498     1.09600
C1267       C  0.68310946  0.96712574  0.32607872     1.09500
C1268       C  0.67367254  0.54226997  0.16753505     1.09500
C1269       C  0.86349175  0.65689631  0.25564259    -0.16400
C1270       C  0.86588117  0.61227546  0.26300117    -0.31600
H1271       H  0.83108856  0.66973907  0.24605458     0.12600
H1272       H  0.89830307  0.59809110  0.27075351     0.13200
C1273       C  0.63040044  0.86543854  0.20360092    -0.16400
C1274       C  0.63024363  0.82324516  0.18278187    -0.31600
H1275       H  0.59908437  0.87774244  0.22141298     0.12600
H1276       H  0.66043955  0.81146630  0.16274710     0.13200
C1277       C  0.79940430  0.87355991  0.08215456    -0.16400
C1278       C  0.79791538  0.87521805  0.12716522    -0.31600
H1279       H  0.80494282  0.90516932  0.06562264     0.12600
H1280       H  0.79564928  0.84343030  0.14365357     0.13200
C1281       C  0.69338027  0.61364188  0.36514343    -0.16400
C1282       C  0.69965840  0.60748745  0.40828949    -0.31600
H1283       H  0.68282430  0.64671730  0.35607120     0.12600
H1284       H  0.70821361  0.57425540  0.41845994     0.13200
C1285       C  0.61356405  0.78230068  0.35850692    -0.16400
C1286       C  0.65758328  0.76755739  0.36009166    -0.31600
H1287       H  0.59856242  0.80383403  0.38625915     0.12600
H1288       H  0.67134476  0.74636175  0.33148318     0.13200
C1289       C  0.87165748  0.73359373  0.11236164    -0.16400
C1290       C  0.82812982  0.74865796  0.12033254    -0.31600
H1291       H  0.87975098  0.71335486  0.08153090     0.12600
H1292       H  0.81909172  0.76625439  0.15232918     0.13200
C1293       C  0.86307561  0.62746987  0.47698883    -0.16400
C1294       C  0.85768335  0.58221088  0.48290604    -0.31600
H1295       H  0.89636666  0.64190599  0.46618757     0.12600
H1296       H  0.82359362  0.56824292  0.49194070     0.13200
C1297       C  0.60990945  0.86834398  0.01963033    -0.16400
C1298       C  0.60612593  0.90914714  0.04333077    -0.31600
H1299       H  0.58516632  0.85848459  0.99446137     0.12600
H1300       H  0.62388273  0.91481783  0.57343210     0.13200
C1301       C  0.60375026  0.96341200  0.36386712    -0.16400
C1302       C  0.65005735  0.96720551  0.36499124    -0.31600
H1303       H  0.58712670  0.95295700  0.33319191     0.12600
H1304       H  0.66517522  0.97731451  0.39662011     0.13200
C1305       C  0.87655266  0.54408002  0.13089960    -0.16400
C1306       C  0.83348231  0.55830965  0.12648309    -0.31600
H1307       H  0.88390398  0.04097411  0.16302990     0.12600
H1308       H  0.82341410  0.56958486  0.09473106     0.13200
C1309       C  0.98159406  0.88266945  0.15397084    -0.16400
C1310       C  0.97098688  0.88269640  0.11056196    -0.31600
H1311       H  0.98467147  0.91437786  0.17489043     0.12600
H1312       H  0.96596485  0.85027749  0.09111483     0.13200
C1313       C  0.51410834  0.62656852  0.39468006    -0.16400
C1314       C  0.51116563  0.63025800  0.35033293    -0.31600
H1315       H  0.51987429  0.65664607  0.41704960     0.12600
H1316       H  0.50908095  0.59946454  0.32822176     0.13200
C1317       C  0.83816893  0.91128163  0.83680905     0.86500
C1318       C  0.80752228  0.89033607  0.87225677    -0.53700
C1319       C  0.82929955  0.86342152  0.89887667     0.09400
C1320       C  0.88236738  0.86132362  0.88810902     0.20400
C1321       C  0.87652269  0.93694386  0.86123678    -0.54500
C1322       C  0.89881354  0.91251598  0.88951409     0.09500
C1323       C  0.86215910  0.87145153  0.81079657    -0.54000
C1324       C  0.88618985  0.84499088  0.83724060     0.10100
H1325       H  0.77031167  0.89482774  0.87442862     0.14600
H1326       H  0.90079027  0.84008176  0.91024420     0.00300
H1327       H  0.88374095  0.97315323  0.85842469     0.14900
H1328       H  0.86123704  0.86545541  0.77467827     0.14700
C1329       C  0.64163334  0.57447362  0.64134041     0.86500
C1330       C  0.60633555  0.60118990  0.67165371    -0.53700
C1331       C  0.58367232  0.63160454  0.65027534     0.09400
C1332       C  0.59651112  0.63210427  0.59981226     0.20400
C1333       C  0.61536059  0.55193645  0.60325437    -0.54500
C1334       C  0.59188613  0.58221034  0.58119414     0.09500
C1335       C  0.67248084  0.61065675  0.61972474    -0.54000
C1336       C  0.64882463  0.64084100  0.59782981     0.10100
H1337       H  0.60148040  0.59872029  0.70761345     0.14600
H1338       H  0.57708566  0.65656319  0.58189315     0.00300
H1339       H  0.61667224  0.51577389  0.59402266     0.14900
H1340       H  0.70971672  0.61200603  0.62050180     0.14700
O1341       O  0.53373400  0.97303748  0.90875515    -0.80100
O1342       O  0.97164623  0.95966049  0.60204810    -0.80200
O1343       O  0.56215253  0.94690677  0.99263148    -0.80200
O1344       O  0.93621832  0.92370256  0.95875289    -0.80100
O1345       O  0.55762729  0.97480137  0.56439116    -0.80200
O1346       O  0.93440214  0.98127657  0.91774415    -0.80200
O1347       O  0.95200195  0.91183236  0.54559842    -0.80100
O1348       O  0.59700124  0.00702397  0.93213195    -0.80200
C1349       C  0.57772365  0.98161490  0.90267065     1.09600
C1350       C  0.96200865  0.91980205  0.58594357     1.09400
C1351       C  0.57152047  0.94499498  0.53346688     1.09600
C1352       C  0.92649115  0.93930340  0.92275655     1.09500
O1353       O  0.93883879  0.56109102  0.97395794    -0.80100
O1354       O  0.52197125  0.57046654  0.54751665    -0.80200
O1355       O  0.53199801  0.57221203  0.95103804    -0.80100
O1356       O  0.89725001  0.99075450  0.56942566    -0.80100
O1357       O  0.94602468  0.04860366  0.58310417    -0.80200
O1358       O  0.98917605  0.54979767  0.89440028    -0.80100
O1359       O  0.88598029  0.50675160  0.98644724    -0.80100
O1360       O  0.57988141  0.53717501  0.51543581    -0.80200
Co1361     Co  0.98395441  0.51700924  0.94686107     1.51500
Co1362     Co  0.49955184  0.01394039  0.57126093     1.51700
Co1363     Co  0.54544937  0.50640453  0.97229230     1.51600
Co1364     Co  0.92262035  0.95727296  0.51263221     1.51500
O1365       O  0.98156333  0.99851056  0.00935282    -1.42100
C1366       C  0.89725279  0.54880004  0.98175939     1.09500
C1367       C  0.56451348  0.56671963  0.54386006     1.09600
C1368       C  0.51509553  0.58073858  0.91322365     1.09500
C1369       C  0.90516141  0.53428148  0.59024151     1.09500
O1370       O  0.81145698  0.79688596  0.94061143    -0.80100
O1371       O  0.74051546  0.74343432  0.60032217    -0.80200
O1372       O  0.78111709  0.81887728  0.51895794    -0.80200
O1373       O  0.79377339  0.64525514  0.00695148    -0.80100
O1374       O  0.72891442  0.82669384  0.57372024    -0.80200
O1375       O  0.82696413  0.69908261  0.96630767    -0.80200
O1376       O  0.79516740  0.72843894  0.54877497    -0.80100
O1377       O  0.75961126  0.85125133  0.94037644    -0.80200
C1378       C  0.79946739  0.83618462  0.92867883     1.09600
C1379       C  0.78295778  0.73838176  0.58925986     1.09400
C1380       C  0.76896820  0.83579502  0.55720534     1.09600
C1381       C  0.82765815  0.65890927  0.98290769     1.09500
O1382       O  0.74757179  0.67705574  0.91729884    -0.80100
O1383       O  0.64091827  0.79967316  0.53616354    -0.80200
O1384       O  0.68125057  0.79396954  0.93529818    -0.80100
O1385       O  0.71580785  0.66996398  0.56291006    -0.80100
O1386       O  0.65396399  0.71127077  0.56305126    -0.80200
O1387       O  0.73122088  0.75692109  0.89323286    -0.80100
O1388       O  0.71032157  0.65449659  0.97596841    -0.80100
O1389       O  0.68931019  0.85050218  0.00754214    -0.80200
Co1390     Co  0.77343238  0.73567641  0.93942432     1.51500
Co1391     Co  0.69224203  0.76841496  0.56333084     1.51700
Co1392     Co  0.73389300  0.80638382  0.97593139     1.51600
Co1393     Co  0.75037137  0.69309426  0.51054583     1.51500
O1394       O  0.72348914  0.74834761  0.99935351    -1.42100
C1395       C  0.71990503  0.64935780  0.93467619     1.09500
C1396       C  0.64824347  0.83891784  0.52152196     1.09600
C1397       C  0.69126443  0.77326707  0.89828448     1.09500
C1398       C  0.67339166  0.67561311  0.57280409     1.09500
O1399       O  0.54169199  0.77868751  0.81702344    -0.80100
O1400       O  0.99585472  0.81567711  0.66108674    -0.80200
O1401       O  0.57234411  0.78952941  0.73025279    -0.80200
O1402       O  0.89870976  0.78590882  0.78054178    -0.80100
O1403       O  0.57339859  0.76150253  0.66064756    -0.80200
O1404       O  0.95198321  0.79614018  0.83134238    -0.80200
O1405       O  0.94232050  0.83153340  0.71384465    -0.80100
O1406       O  0.59794979  0.73347469  0.79252185    -0.80200
C1407       C  0.58354391  0.76422083  0.82116283     1.09600
C1408       C  0.96770870  0.84301366  0.68069260     1.09400
C1409       C  0.58902790  0.78988898  0.69072617     1.09600
C1410       C  0.91373918  0.80653326  0.81605133     1.09500
O1411       O  0.92959202  0.70628323  0.79958217    -0.80100
O1412       O  0.51965085  0.67658024  0.66092892    -0.80200
O1413       O  0.52376398  0.67561969  0.78784349    -0.80100
O1414       O  0.87946168  0.76601875  0.69119915    -0.80100
O1415       O  0.93813038  0.73586112  0.64854728    -0.80200
O1416       O  0.99412695  0.71180450  0.85822521    -0.80100
O1417       O  0.92094199  0.69904059  0.72817154    -0.80100
O1418       O  0.57618904  0.69044846  0.70789746    -0.80200
Co1419     Co  0.98913066  0.74359429  0.80516266     1.51500
Co1420     Co  0.50561987  0.73989223  0.65723803     1.51700
Co1421     Co  0.54623025  0.73331030  0.75548174     1.51600
Co1422     Co  0.93303261  0.76554079  0.72301395     1.51500
O1423       O  0.99406508  0.76193398  0.74043983    -1.42100
C1424       C  0.91214917  0.68517252  0.76627984     1.09500
C1425       C  0.55790241  0.66717304  0.67525461     1.09600
C1426       C  0.50912974  0.67443042  0.82954119     1.09500
C1427       C  0.89459242  0.74616643  0.65462066     1.09500
O1428       O  0.81579156  0.98492798  0.82314251    -0.80100
O1429       O  0.79164588  0.50967589  0.66609188    -0.80200
O1430       O  0.78062289  0.92073132  0.69231999    -0.80200
O1431       O  0.78562461  0.60619012  0.75058040    -0.80100
O1432       O  0.74699848  0.93497826  0.63054085    -0.80200
O1433       O  0.82572244  0.54375735  0.75173785    -0.80200
O1434       O  0.76021215  0.57657111  0.66701101    -0.80100
O1435       O  0.77863463  0.92537062  0.78593530    -0.80200
C1436       C  0.81043997  0.94221779  0.81262342     1.09600
C1437       C  0.79182945  0.54927221  0.65294178     1.09400
C1438       C  0.77526322  0.91205536  0.64990881     1.09600
C1439       C  0.82419878  0.58659089  0.74849127     1.09500
O1440       O  0.75692073  0.57029708  0.82438637    -0.80100
O1441       O  0.67567275  0.93438171  0.69308999    -0.80200
O1442       O  0.67648270  0.95175214  0.78537581    -0.80100
O1443       O  0.66848533  0.55266116  0.70778444    -0.80100
O1444       O  0.69637026  0.51613473  0.64739823    -0.80200
O1445       O  0.72610921  0.98359539  0.82980813    -0.82100
O1446       O  0.69524517  0.58689591  0.78856305    -0.80100
O1447       O  0.70555165  0.88006594  0.72972065    -0.80200
Co1448     Co  0.77450001  0.51327437  0.78671286     1.51500
Co1449     Co  0.73640428  0.97428587  0.68213649     1.51700
Co1450     Co  0.72905163  0.94131116  0.74017971     1.51600
Co1451     Co  0.72621537  0.57840534  0.72862578     1.51500
O1452       O  0.73674622  0.00961497  0.74047925    -1.42100
C1453       C  0.71752185  0.58880037  0.82389953     1.09500
C1454       C  0.67319458  0.89314908  0.70674694     1.09600
C1455       C  0.68600168  0.96760467  0.82374777     1.09500
C1456       C  0.66794496  0.54383952  0.66647631     1.09500
C1457       C  0.87695234  0.64852811  0.77360437    -0.16400
C1458       C  0.86677966  0.61496546  0.74258602    -0.31600
H1459       H  0.85713189  0.65040503  0.80541586     0.12600
H1460       H  0.88748451  0.61095949  0.71144005     0.13200
C1461       C  0.63034653  0.86433387  0.70258986    -0.16400
C1462       C  0.62882512  0.82194801  0.68173755    -0.31600
H1463       H  0.59961962  0.87703595  0.72105629     0.12600
H1464       H  0.65830283  0.80964469  0.66100372     0.13200
C1465       C  0.79810845  0.87084728  0.58010138    -0.16400
C1466       C  0.79781903  0.87348280  0.62493979    -0.31600
H1467       H  0.80291442  0.90206495  0.56284935     0.12600
H1468       H  0.79649440  0.84218454  0.64214034     0.13200
C1469       C  0.69967331  0.61820635  0.86219895    -0.16400
C1470       C  0.70487589  0.61017588  0.90526557    -0.31600
H1471       H  0.69019110  0.65208469  0.85424637     0.12600
H1472       H  0.71228255  0.57624271  0.91447485     0.13200
C1473       C  0.61461635  0.78147032  0.85845426    -0.16400
C1474       C  0.65838068  0.76580026  0.86058666    -0.31600
H1475       H  0.60054962  0.80454017  0.88551484     0.12600
H1476       H  0.67130588  0.74317318  0.83264619     0.13200
C1477       C  0.86200064  0.73477673  0.61856397    -0.16400
C1478       C  0.81684263  0.74443712  0.62456780    -0.31600
H1479       H  0.87550653  0.72013522  0.58627437     0.12600
H1480       H  0.80358290  0.75818943  0.65733603     0.13200
C1481       C  0.86746525  0.62795279  0.97641161    -0.16400
C1482       C  0.86086405  0.58318946  0.98489008    -0.31600
H1483       H  0.90092284  0.64095645  0.96439604     0.12600
H1484       H  0.82656685  0.57060237  0.99498383     0.13200
C1485       C  0.60990056  0.87042883  0.51704311    -0.16400
C1486       C  0.60364942  0.90888763  0.54394137    -0.31600
H1487       H  0.58867585  0.86362198  0.48835908     0.12600
H1488       H  0.62950097  0.91782270  0.06999737     0.13200
C1489       C  0.60616607  0.96376732  0.86265335    -0.16400
C1490       C  0.65262385  0.96989405  0.86290074    -0.31600
H1491       H  0.58967956  0.95086853  0.83269560     0.12600
H1492       H  0.66765799  0.98246844  0.89376925     0.13200
C1493       C  0.87214659  0.55062800  0.62628298    -0.16400
C1494       C  0.82838284  0.56091277  0.61918456    -0.31600
H1495       H  0.88555974  0.04227204  0.65953766     0.12600
H1496       H  0.81849995  0.56804032  0.58593530     0.13200
C1497       C  0.96176773  0.88530058  0.65912480    -0.16400
C1498       C  0.96281279  0.88163094  0.61401637    -0.31600
H1499       H  0.95592251  0.91754016  0.67854709     0.12600
H1500       H  0.96466316  0.84800404  0.59606395     0.13200
C1501       C  0.51859376  0.62651461  0.89468761    -0.16400
C1502       C  0.50999450  0.63073546  0.85121960    -0.31600
H1503       H  0.52746215  0.65618654  0.91618198     0.12600
H1504       H  0.50462827  0.60026109  0.82951436     0.13200
loop_ 
_geom_bond_atom_site_label_1 
_geom_bond_atom_site_label_2 
_geom_bond_distance 
_geom_bond_site_symmetry_2 
_ccdc_geom_bond_type 
C1            C2   1.502       .  S
C1            C7   1.506       .  S
C1            C5   1.500       .  S
C1          C120   1.478       .  S
C2            H9   1.088       .  S
C2            C3   1.366       .  D
C3            C4   1.561       .  S
C3           C62   1.473       .  S
C4            C8   1.560       .  S
C4            C6   1.563       .  S
C4           H10   1.110       .  S
C5           H11   1.087       .  S
C5            C6   1.352       .  D
C6           C36   1.469       .  S
C7           H12   1.088       .  S
C7            C8   1.378       .  D
C8           C94   1.493       .  S
C13          C14   1.533       .  S
C13          C19   1.526       .  S
C13          C17   1.508       .  S
C13         C140   1.467       .  S
C14          H21   1.088       .  S
C14          C15   1.342       .  D
C15          C16   1.537       .  S
C15         C109   1.447       .  S
C16          C20   1.533       .  S
C16          C18   1.537       .  S
C16          H22   1.111       .  S
C17          H23   1.081       .  S
C17          C18   1.363       .  D
C18          C51   1.446       .  S
C19          H24   1.082       .  S
C19          C20   1.362       .  D
C20          C82   1.456       .  S
O25          C33   1.293       .  A
O25       Co1173   2.107   1_455  S
O26          C34   1.267       .  A
O26        Co798   1.999       .  S
O27         C223   1.267       .  A
O27        Co423   1.970       .  S
O28          C36   1.251       .  A
O28        Co236   1.983       .  S
O29          C35   1.286       .  A
O29         Co46   2.060       .  S
O30          C36   1.265       .  A
O30        Co421   1.954       .  S
O31          C34   1.266       .  A
O31         Co48   1.966       .  S
O32          C33   1.261       .  A
O32        Co423   1.886       .  S
C33         C173   1.488       .  S
C34         C182   1.459       .  S
C35         C170   1.486       .  S
C35         O215   1.269   1_554  A
O37          C50   1.261       .  A
O37         Co45   1.964       .  S
O38          C51   1.242       .  A
O38        Co422   1.959   1_455  S
O39          C52   1.304       .  A
O39         Co47   2.140       .  S
O40         C429   1.270       .  A
O40         Co48   2.012       .  S
O41         C429   1.260       .  A
O41        Co798   1.973       .  S
O42         C804   1.262       .  A
O42         Co45   1.899       .  S
O43          C50   1.283       .  A
O43        Co612   2.039   1_545  S
O44          C51   1.250       .  A
O44        Co235   1.981   1_554  S
Co45       O1153   2.107   1_545  S
Co45        O406   1.964   1_545  S
Co45        O425   2.011   1_545  S
Co46        O778   2.005   1_455  S
Co46        O414   1.966       .  S
Co46        O793   1.977   1_455  S
Co46        O989   2.017   1_455  S
Co47        O403   1.990   1_545  S
Co47        O408   1.872       .  S
Co47        O232   1.997       .  S
Co47       O1177   2.014   1_445  S
Co48        O216   1.984   1_554  S
Co48        O607   2.035   1_554  S
Co48        O237   2.031       .  S
O49        Co421   2.012       .  S
O49        Co986   2.019       .  S
O49       Co1175   2.020       .  S
O49        Co236   2.035       .  S
C50         C166   1.473       .  S
C52         C185   1.492       .  S
C52         O794   1.262   1_455  A
C53         C177   1.477       .  S
C53         O416   1.270   1_545  A
C53         O417   1.264       .  A
O54          C62   1.268       .  A
O54         Co74   2.005       .  S
O55          C63   1.273       .  A
O55         Co75   2.038       .  S
O56          C64   1.254       .  A
O56        Co264   1.999   1_554  S
O57          C65   1.264       .  A
O57        Co265   1.834       .  S
O58          C64   1.263       .  A
O58         Co75   1.991       .  S
O59          C65   1.317       .  A
O59         Co74   2.142       .  S
O60          C63   1.263       .  A
O60         Co77   1.994       .  S
O61          C62   1.266       .  A
O61         Co76   1.958       .  S
C63         C162   1.496       .  S
C64         C149   1.471       .  S
C65         C165   1.480       .  S
O66          C79   1.246       .  A
O66         Co74   1.946       .  S
O67          C80   1.276       .  A
O67         Co75   2.024       .  S
O68          C81   1.275       .  A
O68         Co76   2.012       .  S
O69          C82   1.261       .  A
O69         Co77   1.978       .  S
O70          C82   1.259       .  A
O70         Co75   1.976       .  S
O71          C81   1.284       .  A
O71         Co74   2.053       .  S
O72          C79   1.252       .  A
O72        Co265   1.993       .  S
O73         C268   1.275       .  A
O73         Co76   1.901       .  S
Co74         O78   2.148       .  S
Co75        O266   2.157   1_554  S
Co76        O244   1.983       .  S
Co76         O78   1.900       .  S
Co77        O245   1.858       .  S
Co77        O260   1.985   1_554  S
Co77        O266   1.893   1_554  S
O78        Co263   2.161       .  S
O78        Co265   1.895       .  S
C79         C154   1.469       .  S
C80         C169   1.473       .  S
C80         O261   1.253       .  A
C81         C158   1.511       .  S
O83          C91   1.310       .  A
O83        Co855   2.129   1_455  S
O84          C92   1.265       .  A
O84        Co856   1.960       .  S
O85          C93   1.259       .  A
O85        Co105   1.983       .  S
O86          C94   1.271       .  A
O86        Co106   1.795       .  S
O87          C93   1.271       .  A
O87        Co104   2.034       .  S
O88          C94   1.325       .  A
O88        Co103   2.180       .  S
O89          C92   1.270       .  A
O89        Co106   1.990       .  S
O90          C91   1.267       .  A
O90        Co105   1.911       .  S
C91         C157   1.517       .  S
C92         C181   1.473       .  S
C93         C146   1.484       .  S
O95         C108   1.250       .  A
O95        Co103   2.000       .  S
O96         C109   1.255       .  A
O96        Co104   1.930       .  S
O97         C110   1.302       .  A
O97        Co105   2.087       .  S
O98         C111   1.277       .  A
O98        Co106   2.027       .  S
O99         C111   1.273       .  A
O99        Co856   1.999       .  S
O100        C862   1.280       .  A
O100       Co103   1.921       .  S
O101        C108   1.253       .  A
O101       Co106   1.991       .  S
O102        C109   1.280       .  A
O102       Co105   2.014       .  S
Co103       O835   2.134       .  S
Co103       O107   2.077       .  S
Co104       O836   1.968   1_455  S
Co104       O851   2.000   1_455  S
Co104       O859   2.036   1_455  S
Co105       O859   1.959   1_455  S
Co106       O107   1.873       .  S
O107       Co856   2.032       .  S
O107       Co857   1.953       .  S
C108        C141   1.476       .  S
C110        C186   1.485       .  S
C110        O852   1.279   1_455  A
C111        C161   1.495       .  S
O112        C120   1.284       .  A
O112       Co508   1.811       .  S
O113        C121   1.254       .  A
O113       Co509   1.963   1_545  S
O114        C122   1.300       .  A
O114       Co134   2.107       .  S
O115        C123   1.269       .  A
O115       Co135   1.990       .  S
O116        C122   1.265       .  A
O116       Co133   1.877       .  S
O117        C123   1.273       .  A
O117       Co132   1.998       .  S
O118        C121   1.277       .  A
O118       Co135   2.060       .  S
O119        C120   1.313       .  A
O119       Co134   2.111       .  S
C121        C178   1.488       .  S
C122        C150   1.470       .  S
C123        C142   1.486       .  S
O124        C137   1.282       .  A
O124       Co132   2.017       .  S
O125        C138   1.305       .  A
O125       Co133   2.105       .  S
O126        C139   1.254       .  A
O126       Co134   2.011       .  S
O127        C140   1.245       .  A
O127       Co135   1.925       .  S
O128        C140   1.262       .  A
O128       Co509   1.996   1_545  S
O129        C139   1.250       .  A
O129       Co508   1.987       .  S
O130        C137   1.268       .  A
O130       Co135   1.975       .  S
O131        C138   1.276       .  A
O131       Co134   1.906       .  S
Co132       O488   1.799   1_545  S
Co132       O505   1.996   1_545  S
Co132       O512   1.851       .  S
Co133       O489   1.961       .  S
Co133       O504   2.008       .  S
Co133       O136   1.970       .  S
Co134       O136   2.004       .  S
Co135       O512   1.973       .  S
O136       Co508   1.860       .  S
O136       Co511   1.962       .  S
C137        C153   1.472       .  S
C138        C145   1.479       .  S
C139        C174   1.473       .  S
C141        H143   1.085       .  S
C141        C142   1.351       .  D
C142        H144   1.084       .  S
C145        H147   1.088       .  S
C145        C146   1.349       .  D
C146        H148   1.088       .  S
C149        H151   1.087       .  S
C149        C150   1.345       .  D
C150        H152   1.083       .  S
C153        H155   1.087       .  S
C153        C154   1.343       .  D
C154        H156   1.086       .  S
C157        H159   1.090       .  S
C157        C158   1.365       .  D
C158        H160   1.091       .  S
C161        H163   1.085       .  S
C161        C162   1.352       .  D
C162        H164   1.084       .  S
C165        H167   1.084       .  S
C165        C166   1.360       .  D
C166        H168   1.086       .  S
C169        H171   1.087   1_554  S
C169        C170   1.349       .  D
C170        H360   1.090       .  S
H172        C358   1.088       .  S
C173        H175   1.079       .  S
C173        C174   1.345       .  D
C174        H176   1.082       .  S
C177        H555   1.088       .  S
C177        C178   1.352       .  D
C178        H180   1.086       .  S
H179        C553   1.087       .  S
C181        H183   1.095       .  S
C181        C182   1.352       .  D
C182        H184   1.096       .  S
C185        H187   1.080       .  S
C185        C186   1.356       .  D
C186        H188   1.082       .  S
C189        C190   1.499       .  S
C189        C195   1.505       .  S
C189        C193   1.507       .  S
C189        C308   1.481       .  S
C190        H197   1.091       .  S
C190        C191   1.368       .  D
C191        C192   1.556       .  S
C191        C250   1.472       .  S
C192        C196   1.559       .  S
C192        C194   1.566       .  S
C192        H198   1.109       .  S
C193        H199   1.087       .  S
C193        C194   1.357       .  D
C194        C224   1.475       .  S
C195        H200   1.088       .  S
C195        C196   1.381       .  D
C196        C282   1.492       .  S
C201        C202   1.525       .  S
C201        C207   1.529       .  S
C201        C205   1.510       .  S
C201        C328   1.468       .  S
C202        H209   1.088       .  S
C202        C203   1.339       .  D
C203        C204   1.547       .  S
C203        C297   1.451       .  S
C204        C208   1.538       .  S
C204        C206   1.550       .  S
C204        H210   1.111       .  S
C205        H211   1.086       .  S
C205        C206   1.361       .  D
C206        C239   1.455       .  S
C207        H212   1.087       .  S
C207        C208   1.367       .  D
C208        C270   1.469       .  S
O213        C221   1.296       .  A
O213      Co1361   2.121   1_455  S
O214        C222   1.267       .  A
O214       Co986   2.006       .  S
O215       Co611   1.981       .  S
O216        C224   1.251       .  A
O217        C223   1.286       .  A
O217       Co234   2.060       .  S
O218        C224   1.263       .  A
O218       Co609   1.966       .  S
O219        C222   1.265       .  A
O219       Co236   1.968       .  S
O220        C221   1.256       .  A
O220       Co611   1.875       .  S
C221        C361   1.485       .  S
C222        C370   1.467       .  S
C223        C358   1.487       .  S
O225        C238   1.264       .  A
O225       Co233   1.980       .  S
O226        C239   1.239       .  A
O226       Co610   1.963       .  S
O227        C240   1.301       .  A
O227       Co235   2.131       .  S
O228        C617   1.274       .  A
O228       Co236   2.025       .  S
O229        C617   1.261       .  A
O229       Co986   1.980       .  S
O230        C992   1.262       .  A
O230       Co233   1.901       .  S
O231        C238   1.286       .  A
O231       Co424   2.049   1_546  S
O232        C239   1.253       .  A
Co233      O1341   2.124   1_545  S
Co233       O594   1.966   1_545  S
Co233       O613   2.020   1_546  S
Co234       O966   2.013   1_455  S
Co234       O602   1.974       .  S
Co234       O981   1.975   1_455  S
Co234       O801   2.034   1_455  S
Co235       O591   1.983   1_545  S
Co235       O596   1.872       .  S
Co235      O1365   2.017   1_446  S
Co236       O419   2.038       .  S
O237       Co609   2.008   1_554  S
O237       Co798   2.016       .  S
O237      Co1363   2.014   1_554  S
C238        C354   1.488       .  S
C240        C373   1.489       .  S
C240        O982   1.262   1_455  A
C241        C365   1.476       .  S
C241        O604   1.271   1_545  A
C241        O605   1.264       .  A
O242        C250   1.278       .  A
O242       Co262   2.075       .  S
O243        C251   1.278       .  A
O243       Co263   2.045       .  S
O244        C252   1.240       .  A
O245        C253   1.264   1_554  A
O246        C252   1.248       .  A
O246       Co263   1.981       .  S
O247        C253   1.314       .  A
O247       Co262   2.128       .  S
O248        C251   1.264       .  A
O248       Co265   1.983       .  S
O249        C250   1.239       .  A
O249       Co264   1.890       .  S
C251        C350   1.495       .  S
C252        C337   1.470       .  S
C253        C353   1.489       .  S
O254        C267   1.249       .  A
O254       Co262   1.952       .  S
O255        C268   1.308       .  A
O255       Co263   2.100       .  S
O256        C269   1.263       .  A
O256       Co264   2.014       .  S
O257        C270   1.262       .  A
O257       Co265   1.973       .  S
O258        C270   1.267       .  A
O258       Co263   1.999       .  S
O259        C269   1.272       .  A
O259       Co262   2.041       .  S
O260        C267   1.250       .  A
O261       Co264   1.911   1_554  S
Co262       O266   2.205       .  S
Co264       O266   1.932       .  S
C267        C342   1.463       .  S
C268        C357   1.481       .  S
C269        C346   1.520       .  S
O271        C279   1.314       .  A
O271      Co1043   2.142   1_455  S
O272        C280   1.267       .  A
O272      Co1044   1.974       .  S
O273        C281   1.256       .  A
O273       Co293   1.984       .  S
O274        C282   1.269       .  A
O274       Co294   1.794       .  S
O275        C281   1.269       .  A
O275       Co292   2.033       .  S
O276        C282   1.325       .  A
O276       Co291   2.182       .  S
O277        C280   1.270       .  A
O277       Co294   1.992       .  S
O278        C279   1.266       .  A
O278       Co293   1.909       .  S
C279        C345   1.523       .  S
C280        C369   1.480       .  S
C281        C334   1.482       .  S
O283        C296   1.251       .  A
O283       Co291   2.008       .  S
O284        C297   1.252       .  A
O284       Co292   1.924       .  S
O285        C298   1.304       .  A
O285       Co293   2.091       .  S
O286        C299   1.275       .  A
O286       Co294   2.024       .  S
O287        C299   1.272       .  A
O287      Co1044   1.996       .  S
O288       C1050   1.280       .  A
O288       Co291   1.926       .  S
O289        C296   1.251       .  A
O289       Co294   1.982       .  S
O290        C297   1.284       .  A
O290       Co293   2.023       .  S
Co291      O1023   2.141       .  S
Co291       O295   2.085       .  S
Co292      O1024   1.969   1_455  S
Co292      O1039   1.993   1_455  S
Co292      O1047   2.041   1_455  S
Co293      O1047   1.956   1_455  S
Co294       O295   1.877       .  S
O295      Co1044   2.039       .  S
O295      Co1045   1.955       .  S
C296        C329   1.476       .  S
C298        C374   1.484       .  S
C298       O1040   1.279   1_455  A
C299        C349   1.493       .  S
O300        C308   1.280       .  A
O300       Co696   1.806       .  S
O301        C309   1.255       .  A
O301       Co697   1.962   1_545  S
O302        C310   1.296       .  A
O302       Co322   2.091       .  S
O303        C311   1.269       .  A
O303       Co323   1.987       .  S
O304        C310   1.265       .  A
O304       Co321   1.885       .  S
O305        C311   1.272       .  A
O305       Co320   2.001       .  S
O306        C309   1.276       .  A
O306       Co323   2.059       .  S
O307        C308   1.316       .  A
O307       Co322   2.123       .  S
C309        C366   1.489       .  S
C310        C338   1.468       .  S
C311        C330   1.486       .  S
O312        C325   1.282       .  A
O312       Co320   2.011       .  S
O313        C326   1.303       .  A
O313       Co321   2.095       .  S
O314        C327   1.249       .  A
O314       Co322   1.995       .  S
O315        C328   1.249       .  A
O315       Co323   1.927       .  S
O316        C328   1.259       .  A
O316       Co697   1.990   1_545  S
O317        C327   1.256       .  A
O317       Co696   2.008       .  S
O318        C325   1.268       .  A
O318       Co323   1.971       .  S
O319        C326   1.279       .  A
O319       Co322   1.916       .  S
Co320       O676   1.801   1_545  S
Co320       O693   2.000   1_545  S
Co320       O700   1.851       .  S
Co321       O677   1.956       .  S
Co321       O692   2.007       .  S
Co321       O324   1.962       .  S
Co322       O324   2.017       .  S
Co323       O700   1.981       .  S
O324       Co696   1.856       .  S
O324       Co699   1.986       .  S
C325        C341   1.468       .  S
C326        C333   1.481       .  S
C327        C362   1.471       .  S
C329        H331   1.087       .  S
C329        C330   1.350       .  D
C330        H332   1.086       .  S
C333        H335   1.087       .  S
C333        C334   1.348       .  D
C334        H336   1.088       .  S
C337        H339   1.082       .  S
C337        C338   1.343       .  D
C338        H340   1.081       .  S
C341        H343   1.088       .  S
C341        C342   1.341       .  D
C342        H344   1.085       .  S
C345        H347   1.088       .  S
C345        C346   1.372       .  D
C346        H348   1.089       .  S
C349        H351   1.086       .  S
C349        C350   1.353       .  D
C350        H352   1.085       .  S
C353        H355   1.083       .  S
C353        C354   1.364       .  D
C354        H356   1.086       .  S
C357        H359   1.087       .  S
C357        C358   1.352       .  D
C361        H363   1.078       .  S
C361        C362   1.350       .  D
C362        H364   1.080       .  S
C365        H743   1.088       .  S
C365        C366   1.351       .  D
C366        H368   1.086       .  S
H367        C741   1.088       .  S
C369        H371   1.093       .  S
C369        C370   1.353       .  D
C370        H372   1.094       .  S
C373        H375   1.080       .  S
C373        C374   1.355       .  D
C374        H376   1.082       .  S
C377        C378   1.502       .  S
C377        C383   1.507       .  S
C377        C381   1.504       .  S
C377        C496   1.472       .  S
C378        H385   1.088       .  S
C378        C379   1.364       .  D
C379        C380   1.560       .  S
C379        C438   1.470       .  S
C380        C384   1.558       .  S
C380        C382   1.567       .  S
C380        H386   1.110       .  S
C381        H387   1.087       .  S
C381        C382   1.352       .  D
C382        C412   1.474       .  S
C383        H388   1.088       .  S
C383        C384   1.375       .  D
C384        C470   1.489       .  S
C389        C390   1.536       .  S
C389        C395   1.525       .  S
C389        C393   1.494       .  S
C389        C516   1.470       .  S
C390        H397   1.087       .  S
C390        C391   1.346       .  D
C391        C392   1.539       .  S
C391        C485   1.451       .  S
C392        C396   1.536       .  S
C392        C394   1.541       .  S
C392        H398   1.111       .  S
C393        H399   1.079       .  S
C393        C394   1.356       .  D
C394        C427   1.438       .  S
C395        H400   1.081       .  S
C395        C396   1.369       .  D
C396        C458   1.465       .  S
O401        C409   1.292       .  A
O401       Co797   2.103   1_465  S
O402        C410   1.267       .  A
O402      Co1174   2.003   1_565  S
O403        C599   1.269       .  A
O404        C412   1.249       .  A
O404       Co612   1.986       .  S
O405        C411   1.285       .  A
O405       Co422   2.053   1_465  S
O406        C412   1.264       .  A
O407        C410   1.265       .  A
O407       Co424   1.969       .  S
O408        C409   1.259   1_545  A
C409        C549   1.477       .  S
C410        C558   1.465       .  S
C411        C546   1.491       .  S
C411        O591   1.270   1_554  A
O413        C426   1.268       .  A
O413       Co421   1.982       .  S
O414        C427   1.243       .  A
O415        C428   1.299       .  A
O415       Co423   2.118       .  S
O416       Co424   2.014       .  S
O417      Co1174   1.988       .  S
O418       C1180   1.264       .  A
O418       Co421   1.899       .  S
O419        C426   1.280       .  A
O420        C427   1.250       .  A
O420       Co611   1.966   1_554  S
Co421       O777   2.128       .  S
Co422      O1154   2.010   1_545  S
Co422      O1169   1.971       .  S
Co422      O1365   2.023   1_545  S
Co423       O608   2.009       .  S
Co423       O801   2.013   1_455  S
Co424       O592   1.975   1_554  S
Co424       O613   2.027       .  S
O425      Co1362   2.018   1_565  S
O425       Co799   2.019   1_565  S
O425       Co612   2.027       .  S
C426        C542   1.488       .  S
C428        C561   1.480       .  S
C428       O1170   1.264   1_455  A
C429        C553   1.466       .  S
O430        C438   1.264       .  A
O430       Co450   1.988       .  S
O431        C439   1.278       .  A
O431       Co451   2.038       .  S
O432        C440   1.239       .  A
O432       Co640   1.978   1_554  S
O433        C441   1.279       .  A
O433       Co641   2.012       .  S
O434        C440   1.248       .  A
O434       Co451   1.978       .  S
O435        C441   1.281       .  A
O435       Co450   2.007       .  S
O436        C439   1.264       .  A
O436       Co453   1.969       .  S
O437        C438   1.271       .  A
O437       Co452   1.973       .  S
C439        C538   1.482       .  S
C440        C525   1.469       .  S
C441        C541   1.487       .  S
O442        C455   1.271       .  A
O442       Co450   1.965       .  S
O443        C456   1.311       .  A
O443       Co451   2.117       .  S
O444        C457   1.269       .  A
O444       Co452   2.010       .  S
O445        C458   1.259       .  A
O445       Co453   1.961       .  S
O446        C458   1.268       .  A
O446       Co451   2.002       .  S
O447        C457   1.283       .  A
O447       Co450   2.049       .  S
O448        C455   1.270       .  A
O448       Co641   1.973       .  S
O449        C644   1.263       .  A
O449       Co452   1.908       .  S
Co450       O454   1.991       .  S
Co451       O642   2.158   1_554  S
Co452       O620   2.061       .  S
Co452       O454   1.964       .  S
Co453       O621   1.843       .  S
Co453       O636   1.982   1_554  S
Co453       O642   1.880   1_554  S
O454       Co639   2.024       .  S
O454       Co641   1.909       .  S
C455        C530   1.458       .  S
C456        C545   1.484       .  S
C456        O637   1.274   1_554  A
C457        C534   1.511       .  S
O459        C467   1.314       .  A
O459      Co1231   2.140   1_455  S
O460        C468   1.266       .  A
O460      Co1232   1.971       .  S
O461        C469   1.256       .  A
O461       Co481   1.981       .  S
O462        C470   1.272       .  A
O462       Co482   1.799       .  S
O463        C469   1.270       .  A
O463       Co480   2.037       .  S
O464        C470   1.323       .  A
O464       Co479   2.173       .  S
O465        C468   1.270       .  A
O465       Co482   1.990       .  S
O466        C467   1.263       .  A
O466       Co481   1.902       .  S
C467        C533   1.516       .  S
C468        C557   1.477       .  S
C469        C522   1.487       .  S
O471        C484   1.252       .  A
O471       Co479   2.012       .  S
O472        C485   1.256       .  A
O472       Co480   1.936       .  S
O473        C486   1.303       .  A
O473       Co481   2.083       .  S
O474        C487   1.275       .  A
O474       Co482   2.016       .  S
O475        C487   1.269       .  A
O475      Co1232   1.981       .  S
O476       C1238   1.280       .  A
O476       Co479   1.919       .  S
O477        C484   1.253       .  A
O477       Co482   1.994       .  S
O478        C485   1.278       .  A
O478       Co481   2.013       .  S
Co479      O1211   2.136       .  S
Co479       O483   2.071       .  S
Co480      O1212   1.975   1_455  S
Co480      O1227   2.003   1_455  S
Co480      O1235   2.042   1_455  S
Co481      O1235   1.957   1_455  S
Co482       O483   1.875       .  S
O483      Co1232   2.032       .  S
O483      Co1233   1.948       .  S
C484        C517   1.483       .  S
C486        C562   1.475       .  S
C486       O1228   1.280   1_455  A
C487        C537   1.478       .  S
O488        C496   1.280       .  A
O489        C497   1.256       .  A
O490        C498   1.296       .  A
O490       Co510   2.094       .  S
O491        C499   1.273       .  A
O491       Co511   2.006       .  S
O492        C498   1.265       .  A
O492       Co509   1.876       .  S
O493        C499   1.274       .  A
O493       Co508   1.996       .  S
O494        C497   1.273       .  A
O494       Co511   2.043       .  S
O495        C496   1.314       .  A
O495       Co510   2.114       .  S
C497        C554   1.477       .  S
C498        C526   1.465       .  S
C499        C518   1.492       .  S
O500        C513   1.286       .  A
O500       Co508   2.033       .  S
O501        C514   1.303       .  A
O501       Co509   2.099       .  S
O502        C515   1.249       .  A
O502       Co510   1.992       .  S
O503        C516   1.237       .  A
O503       Co511   1.914       .  S
O504        C516   1.262       .  A
O505        C515   1.252       .  A
O506        C513   1.256       .  A
O506       Co511   1.944       .  S
O507        C514   1.277       .  A
O507       Co510   1.915       .  S
Co509       O512   1.967   1_565  S
Co510       O512   2.011   1_565  S
C513        C529   1.455       .  S
C514        C521   1.481       .  S
C515        C550   1.461       .  S
C517        H519   1.082       .  S
C517        C518   1.353       .  D
C518        H520   1.082       .  S
C521        H523   1.087       .  S
C521        C522   1.351       .  D
C522        H524   1.088       .  S
C525        H527   1.088       .  S
C525        C526   1.341       .  D
C526        H528   1.086       .  S
C529        H531   1.089       .  S
C529        C530   1.334       .  D
C530        H532   1.086       .  S
C533        H535   1.089       .  S
C533        C534   1.370       .  D
C534        H536   1.089       .  S
C537        H539   1.079       .  S
C537        C538   1.347       .  D
C538        H540   1.077       .  S
C541        H543   1.089       .  S
C541        C542   1.353       .  D
C542        H544   1.089       .  S
C545        H547   1.087   1_554  S
C545        C546   1.350       .  D
C546        H736   1.088       .  S
H548        C734   1.089       .  S
C549        H551   1.085       .  S
C549        C550   1.342       .  D
C550        H552   1.088       .  S
C553        C554   1.344       .  D
C554        H556   1.086       .  S
C557        H559   1.094       .  S
C557        C558   1.352       .  D
C558        H560   1.095       .  S
C561        H563   1.090       .  S
C561        C562   1.348       .  D
C562        H564   1.091       .  S
C565        C566   1.497       .  S
C565        C571   1.508       .  S
C565        C569   1.504       .  S
C565        C684   1.478       .  S
C566        H573   1.088       .  S
C566        C567   1.368       .  D
C567        C568   1.562       .  S
C567        C626   1.475       .  S
C568        C572   1.554       .  S
C568        C570   1.564       .  S
C568        H574   1.110       .  S
C569        H575   1.086       .  S
C569        C570   1.350       .  D
C570        C600   1.468       .  S
C571        H576   1.087       .  S
C571        C572   1.378       .  D
C572        C658   1.487       .  S
C577        C578   1.527       .  S
C577        C583   1.528       .  S
C577        C581   1.508       .  S
C577        C704   1.475       .  S
C578        H585   1.088       .  S
C578        C579   1.349       .  D
C579        C580   1.561       .  S
C579        C673   1.476       .  S
C580        C584   1.559       .  S
C580        C582   1.560       .  S
C580        H586   1.111       .  S
C581        H587   1.083       .  S
C581        C582   1.359       .  D
C582        C615   1.471       .  S
C583        H588   1.081       .  S
C583        C584   1.361       .  D
C584        C646   1.473       .  S
O589        C597   1.292       .  A
O589       Co985   2.104   1_465  S
O590        C598   1.266       .  A
O590      Co1362   1.998   1_565  S
O592        C600   1.245       .  A
O593        C599   1.294       .  A
O593       Co610   2.089   1_565  S
O594        C600   1.265       .  A
O595        C598   1.267       .  A
O595       Co612   1.968       .  S
O596        C597   1.258   1_545  A
C597        C737   1.475       .  S
C598        C746   1.461       .  S
C599        C734   1.510       .  S
O601        C614   1.261       .  A
O601       Co609   1.960       .  S
O602        C615   1.245       .  A
O603        C616   1.296       .  A
O603       Co611   2.125       .  S
O604       Co612   2.017       .  S
O605      Co1362   1.986       .  S
O606       C1368   1.261       .  A
O606       Co609   1.900       .  S
O607        C614   1.281       .  A
O608        C615   1.260       .  A
Co609       O965   2.109       .  S
Co610      O1342   1.994   1_445  S
Co610      O1357   1.975   1_455  S
Co610      O1177   2.019   1_445  S
Co611       O989   2.011   1_456  S
O613      Co1174   2.020   1_565  S
O613       Co987   2.020   1_564  S
C614        C730   1.469       .  S
C616        C749   1.478       .  S
C616       O1358   1.262   1_455  A
C617        C741   1.477       .  S
O618        C626   1.269       .  A
O618       Co638   2.010       .  S
O619        C627   1.247       .  A
O619       Co639   2.010       .  S
O620        C628   1.291       .  A
O621        C629   1.266   1_554  A
O622        C628   1.284       .  A
O622       Co639   1.896       .  S
O623        C629   1.314       .  A
O623       Co638   2.124       .  S
O624        C627   1.257       .  A
O624       Co641   2.040       .  S
O625        C626   1.265       .  A
O625       Co640   1.950       .  S
C627        C726   1.511       .  S
C628        C713   1.458       .  S
C629        C729   1.475       .  S
O630        C643   1.248       .  A
O630       Co638   1.956       .  S
O631        C644   1.312       .  A
O631       Co639   2.148       .  S
O632        C645   1.273       .  A
O632       Co640   1.994       .  S
O633        C646   1.278       .  A
O633       Co641   1.837       .  S
O634        C646   1.319       .  A
O634       Co639   2.149       .  S
O635        C645   1.280       .  A
O635       Co638   2.033       .  S
O636        C643   1.247       .  A
O637       Co640   1.891       .  S
Co638       O642   2.149       .  S
Co640       O642   1.883       .  S
C643        C718   1.463       .  S
C644        C733   1.505       .  S
C645        C722   1.488       .  S
O647        C655   1.300       .  A
O647      Co1419   2.094   1_455  S
O648        C656   1.266       .  A
O648      Co1420   1.961       .  S
O649        C657   1.257       .  A
O649       Co669   1.973       .  S
O650        C658   1.270       .  A
O650       Co670   1.795       .  S
O651        C657   1.272       .  A
O651       Co668   2.033       .  S
O652        C658   1.324       .  A
O652       Co667   2.175       .  S
O653        C656   1.272       .  A
O653       Co670   1.993       .  S
O654        C655   1.272       .  A
O654       Co669   1.913       .  S
C655        C721   1.493       .  S
C656        C745   1.475       .  S
C657        C710   1.473       .  S
O659        C672   1.250       .  A
O659       Co667   1.998       .  S
O660        C673   1.258       .  A
O660       Co668   1.961       .  S
O661        C674   1.300       .  A
O661       Co669   2.074       .  S
O662        C675   1.273       .  A
O662       Co670   2.011       .  S
O663        C675   1.280       .  A
O663      Co1420   2.038       .  S
O664       C1426   1.279       .  A
O664       Co667   1.928       .  S
O665        C672   1.257       .  A
O665       Co670   2.003       .  S
O666        C673   1.275       .  A
O666       Co669   2.016       .  S
Co667      O1399   2.139       .  S
Co667       O671   2.076       .  S
Co668      O1400   1.939   1_455  S
Co668      O1415   2.127   1_455  S
Co668      O1423   2.118   1_455  S
Co669      O1423   1.979   1_455  S
Co670       O671   1.862       .  S
O671      Co1420   2.035       .  S
O671      Co1421   1.956       .  S
C672        C705   1.479       .  S
C674        C750   1.471       .  S
C674       O1416   1.282   1_455  A
C675        C725   1.504       .  S
O676        C684   1.280       .  A
O677        C685   1.252       .  A
O678        C686   1.292       .  A
O678       Co698   2.079       .  S
O679        C687   1.267       .  A
O679       Co699   1.988       .  S
O680        C686   1.263       .  A
O680       Co697   1.854       .  S
O681        C687   1.273       .  A
O681       Co696   2.002       .  S
O682        C685   1.277       .  A
O682       Co699   2.062       .  S
O683        C684   1.313       .  A
O683       Co698   2.117       .  S
C685        C742   1.487       .  S
C686        C714   1.454       .  S
C687        C706   1.487       .  S
O688        C701   1.283       .  A
O688       Co696   2.016       .  S
O689        C702   1.304       .  A
O689       Co697   2.101       .  S
O690        C703   1.247       .  A
O690       Co698   1.985       .  S
O691        C704   1.244       .  A
O691       Co699   1.926       .  S
O692        C704   1.266       .  A
O693        C703   1.253       .  A
O694        C701   1.267       .  A
O694       Co699   1.968       .  S
O695        C702   1.278       .  A
O695       Co698   1.904       .  S
Co697       O700   1.949   1_565  S
Co698       O700   2.016   1_565  S
C701        C717   1.467       .  S
C702        C709   1.478       .  S
C703        C738   1.460       .  S
C705        H707   1.085       .  S
C705        C706   1.354       .  D
C706        H708   1.083       .  S
C709        H711   1.087       .  S
C709        C710   1.346       .  D
C710        H712   1.087       .  S
C713        H715   1.089       .  S
C713        C714   1.334       .  D
C714        H716   1.088       .  S
C717        H719   1.088       .  S
C717        C718   1.338       .  D
C718        H720   1.087       .  S
C721        H723   1.084       .  S
C721        C722   1.350       .  D
C722        H724   1.085       .  S
C725        H727   1.090       .  S
C725        C726   1.357       .  D
C726        H728   1.089       .  S
C729        H731   1.087       .  S
C729        C730   1.357       .  D
C730        H732   1.088       .  S
C733        H735   1.087       .  S
C733        C734   1.366       .  D
C737        H739   1.079       .  S
C737        C738   1.343       .  D
C738        H740   1.082       .  S
C741        C742   1.353       .  D
C742        H744   1.086       .  S
C745        H747   1.091       .  S
C745        C746   1.354       .  D
C746        H748   1.093       .  S
C749        H751   1.095       .  S
C749        C750   1.346       .  D
C750        H752   1.096       .  S
C753        C754   1.495       .  S
C753        C759   1.502       .  S
C753        C757   1.505       .  S
C753        C872   1.474       .  S
C754        H761   1.088       .  S
C754        C755   1.363       .  D
C755        C756   1.571       .  S
C755        C814   1.479       .  S
C756        C760   1.566       .  S
C756        C758   1.579       .  S
C756        H762   1.110       .  S
C757        H763   1.086       .  S
C757        C758   1.353       .  D
C758        C788   1.489       .  S
C759        H764   1.087       .  S
C759        C760   1.376       .  D
C760        C846   1.497       .  S
C765        C766   1.530       .  S
C765        C771   1.530       .  S
C765        C769   1.506       .  S
C765        C892   1.469       .  S
C766        H773   1.087       .  S
C766        C767   1.340       .  D
C767        C768   1.541       .  S
C767        C861   1.448       .  S
C768        C772   1.534       .  S
C768        C770   1.540       .  S
C768        H774   1.111       .  S
C769        H775   1.084       .  S
C769        C770   1.361       .  D
C770        C803   1.450       .  S
C771        H776   1.084       .  S
C771        C772   1.365       .  D
C772        C834   1.460       .  S
O777        C785   1.296       .  A
O778        C786   1.269       .  A
O779        C975   1.270       .  A
O779      Co1175   1.977       .  S
O780        C788   1.250       .  A
O780       Co988   1.989       .  S
O781        C787   1.285       .  A
O781       Co798   2.055       .  S
O782        C788   1.269       .  A
O782      Co1173   1.982       .  S
O783        C786   1.267       .  A
O783       Co800   1.968       .  S
O784        C785   1.255       .  A
O784      Co1175   1.884       .  S
C785        C925   1.492       .  S
C786        C934   1.464       .  S
C787        C922   1.487       .  S
C787        O967   1.270   1_554  A
O789        C802   1.260       .  A
O789       Co797   1.966       .  S
O790        C803   1.242       .  A
O790      Co1174   1.958       .  S
O791        C804   1.299       .  A
O791       Co799   2.126       .  S
O792       C1181   1.271       .  A
O792       Co800   2.015       .  S
O793       C1181   1.262       .  A
O794       Co797   1.900       .  S
O795        C802   1.279       .  A
O795      Co1364   2.028   1_545  S
O796        C803   1.254       .  A
O796       Co987   1.987   1_554  S
Co797      O1158   1.968   1_545  S
Co797      O1177   2.009   1_545  S
Co798      O1166   1.958       .  S
Co799      O1155   1.977   1_545  S
Co799      O1160   1.886       .  S
Co799       O984   1.981       .  S
Co800       O968   1.991   1_554  S
Co800      O1359   2.041   1_554  S
Co800       O989   2.028       .  S
O801      Co1173   2.013       .  S
O801       Co988   2.033       .  S
C802        C918   1.468       .  S
C804        C937   1.484       .  S
C805        C929   1.473       .  S
C805       O1168   1.272   1_545  A
C805       O1169   1.261       .  A
O806        C814   1.266       .  A
O806       Co826   2.010       .  S
O807        C815   1.273       .  A
O807       Co827   2.040       .  S
O808        C816   1.258       .  A
O808      Co1016   2.002   1_554  S
O809        C817   1.264       .  A
O809      Co1017   1.829       .  S
O810        C816   1.264       .  A
O810       Co827   1.994       .  S
O811        C817   1.315       .  A
O811       Co826   2.140       .  S
O812        C815   1.264       .  A
O812       Co829   2.004       .  S
O813        C814   1.268       .  A
O813       Co828   1.961       .  S
C815        C914   1.502       .  S
C816        C901   1.473       .  S
C817        C917   1.476       .  S
O818        C831   1.247       .  A
O818       Co826   1.944       .  S
O819        C832   1.270       .  A
O819       Co827   2.009       .  S
O820        C833   1.271       .  A
O820       Co828   2.008       .  S
O821        C834   1.262       .  A
O821       Co829   1.977       .  S
O822        C834   1.261       .  A
O822       Co827   1.979       .  S
O823        C833   1.285       .  A
O823       Co826   2.055       .  S
O824        C831   1.253       .  A
O824      Co1017   1.993       .  S
O825       C1020   1.276       .  A
O825       Co828   1.907       .  S
Co826       O830   2.144       .  S
Co827      O1018   2.096   1_554  S
Co828       O996   1.978       .  S
Co828       O830   1.894       .  S
Co829       O997   1.838       .  S
Co829      O1012   1.996   1_554  S
Co829      O1018   1.906   1_554  S
O830      Co1015   2.164       .  S
O830      Co1017   1.894       .  S
C831        C906   1.468       .  S
C832        C921   1.483       .  S
C832       O1013   1.267       .  A
C833        C910   1.509       .  S
O835        C843   1.312       .  A
O836        C844   1.266       .  A
O837        C845   1.258       .  A
O837       Co857   1.978       .  S
O838        C846   1.273       .  A
O838       Co858   1.800       .  S
O839        C845   1.272       .  A
O839       Co856   2.040       .  S
O840        C846   1.323       .  A
O840       Co855   2.175       .  S
O841        C844   1.270       .  A
O841       Co858   1.992       .  S
O842        C843   1.266       .  A
O842       Co857   1.904       .  S
C843        C909   1.516       .  S
C844        C933   1.478       .  S
C845        C898   1.487       .  S
O847        C860   1.251       .  A
O847       Co855   2.002       .  S
O848        C861   1.252       .  A
O848       Co856   1.926       .  S
O849        C862   1.301       .  A
O849       Co857   2.079       .  S
O850        C863   1.279       .  A
O850       Co858   2.034       .  S
O851        C863   1.274       .  A
O852       Co855   1.928       .  S
O853        C860   1.252       .  A
O853       Co858   1.986       .  S
O854        C861   1.280       .  A
O854       Co857   2.019       .  S
Co855       O859   2.081       .  S
Co858       O859   1.877       .  S
C860        C893   1.476       .  S
C862        C938   1.475       .  S
C863        C913   1.500       .  S
O864        C872   1.278       .  A
O864      Co1260   1.794       .  S
O865        C873   1.257       .  A
O865      Co1261   1.962   1_545  S
O866        C874   1.301       .  A
O866       Co886   2.108       .  S
O867        C875   1.271       .  A
O867       Co887   1.995       .  S
O868        C874   1.264       .  A
O868       Co885   1.873       .  S
O869        C875   1.272       .  A
O869       Co884   1.993       .  S
O870        C873   1.276       .  A
O870       Co887   2.049       .  S
O871        C872   1.317       .  A
O871       Co886   2.125       .  S
C873        C930   1.476       .  S
C874        C902   1.470       .  S
C875        C894   1.485       .  S
O876        C889   1.282       .  A
O876       Co884   2.018       .  S
O877        C890   1.305       .  A
O877       Co885   2.108       .  S
O878        C891   1.251       .  A
O878       Co886   2.007       .  S
O879        C892   1.247       .  A
O879       Co887   1.926       .  S
O880        C892   1.262       .  A
O880      Co1261   1.996   1_545  S
O881        C891   1.254       .  A
O881      Co1260   2.005       .  S
O882        C889   1.268       .  A
O882       Co887   1.973       .  S
O883        C890   1.277       .  A
O883       Co886   1.907       .  S
Co884      O1240   1.796   1_545  S
Co884      O1257   2.005   1_545  S
Co884      O1264   1.853       .  S
Co885      O1241   1.966       .  S
Co885      O1256   2.003       .  S
Co885       O888   1.965       .  S
Co886       O888   2.006       .  S
Co887      O1264   1.969       .  S
O888      Co1260   1.856       .  S
O888      Co1263   1.969       .  S
C889        C905   1.471       .  S
C890        C897   1.480       .  S
C891        C926   1.477       .  S
C893        H895   1.086       .  S
C893        C894   1.349       .  D
C894        H896   1.085       .  S
C897        H899   1.087       .  S
C897        C898   1.351       .  D
C898        H900   1.087       .  S
C901        H903   1.087       .  S
C901        C902   1.347       .  D
C902        H904   1.085       .  S
C905        H907   1.087       .  S
C905        C906   1.342       .  D
C906        H908   1.085       .  S
C909        H911   1.089       .  S
C909        C910   1.367       .  D
C910        H912   1.089       .  S
C913        H915   1.089       .  S
C913        C914   1.353       .  D
C914        H916   1.088       .  S
C917        H919   1.085       .  S
C917        C918   1.356       .  D
C918        H920   1.086       .  S
C921        H923   1.089   1_554  S
C921        C922   1.349       .  D
C922       H1112   1.089       .  S
H924       C1110   1.088       .  S
C925        H927   1.079       .  S
C925        C926   1.352       .  D
C926        H928   1.080       .  S
C929       H1307   1.085       .  S
C929        C930   1.345       .  D
C930        H932   1.084       .  S
H931       C1305   1.088       .  S
C933        H935   1.094       .  S
C933        C934   1.352       .  D
C934        H936   1.095       .  S
C937        H939   1.086       .  S
C937        C938   1.350       .  D
C938        H940   1.086       .  S
C941        C942   1.499       .  S
C941        C947   1.500       .  S
C941        C945   1.502       .  S
C941       C1060   1.473       .  S
C942        H949   1.087       .  S
C942        C943   1.361       .  D
C943        C944   1.563       .  S
C943       C1002   1.469       .  S
C944        C948   1.567       .  S
C944        C946   1.565       .  S
C944        H950   1.110       .  S
C945        H951   1.086       .  S
C945        C946   1.357       .  D
C946        C976   1.473       .  S
C947        H952   1.086       .  S
C947        C948   1.378       .  D
C948       C1034   1.500       .  S
C953        C954   1.531       .  S
C953        C959   1.531       .  S
C953        C957   1.503       .  S
C953       C1080   1.474       .  S
C954        H961   1.087       .  S
C954        C955   1.343       .  D
C955        C956   1.543       .  S
C955       C1049   1.450       .  S
C956        C960   1.536       .  S
C956        C958   1.540       .  S
C956        H962   1.111       .  S
C957        H963   1.085       .  S
C957        C958   1.359       .  D
C958        C991   1.447       .  S
C959        H964   1.085       .  S
C959        C960   1.369       .  D
C960       C1022   1.468       .  S
O965        C973   1.294       .  A
O966        C974   1.268       .  A
O967      Co1363   1.981       .  S
O968        C976   1.251       .  A
O969        C975   1.288       .  A
O969       Co986   2.064       .  S
O970        C976   1.262       .  A
O970      Co1361   1.952       .  S
O971        C974   1.263       .  A
O971       Co988   1.959       .  S
O972        C973   1.258       .  A
O972      Co1363   1.873       .  S
C973       C1113   1.479       .  S
C974       C1122   1.465       .  S
C975       C1110   1.492       .  S
O977        C990   1.260       .  A
O977       Co985   1.963       .  S
O978        C991   1.243       .  A
O978      Co1362   1.961       .  S
O979        C992   1.302       .  A
O979       Co987   2.133       .  S
O980       C1369   1.271       .  A
O980       Co988   2.013       .  S
O981       C1369   1.262       .  A
O982       Co985   1.906       .  S
O983        C990   1.283       .  A
O983      Co1176   2.037   1_546  S
O984        C991   1.253       .  A
Co985      O1346   1.974   1_545  S
Co985      O1365   2.016   1_546  S
Co986      O1354   1.955       .  S
Co987      O1343   1.983   1_545  S
Co987      O1348   1.887       .  S
Co988      O1171   2.036       .  S
O989      Co1361   2.009   1_554  S
C990       C1106   1.471       .  S
C992       C1125   1.489       .  S
C993       C1117   1.476       .  S
C993       O1356   1.273   1_545  A
C993       O1357   1.262       .  A
O994       C1002   1.296       .  A
O994      Co1014   2.078       .  S
O995       C1003   1.279       .  A
O995      Co1015   2.049       .  S
O996       C1004   1.236       .  A
O997       C1005   1.260   1_554  A
O998       C1004   1.248       .  A
O998      Co1015   1.981       .  S
O999       C1005   1.313       .  A
O999      Co1014   2.132       .  S
O1000      C1003   1.263       .  A
O1000     Co1017   1.976       .  S
O1001      C1002   1.272       .  A
O1001     Co1016   1.860       .  S
C1003      C1102   1.495       .  S
C1004      C1089   1.466       .  S
C1005      C1105   1.481       .  S
O1006      C1019   1.247       .  A
O1006     Co1014   1.951       .  S
O1007      C1020   1.309       .  A
O1007     Co1015   2.103       .  S
O1008      C1021   1.252       .  A
O1008     Co1016   2.011       .  S
O1009      C1022   1.263       .  A
O1009     Co1017   1.975       .  S
O1010      C1022   1.267       .  A
O1010     Co1015   1.994       .  S
O1011      C1021   1.264       .  A
O1011     Co1014   2.032       .  S
O1012      C1019   1.255       .  A
O1013     Co1016   2.009   1_554  S
Co1014     O1018   2.265       .  S
Co1016     O1018   1.898       .  S
C1019      C1094   1.474       .  S
C1020      C1109   1.485       .  S
C1021      C1098   1.512       .  S
O1023      C1031   1.313       .  A
O1024      C1032   1.266       .  A
O1025      C1033   1.256       .  A
O1025     Co1045   1.976       .  S
O1026      C1034   1.270       .  A
O1026     Co1046   1.793       .  S
O1027      C1033   1.268       .  A
O1027     Co1044   2.028       .  S
O1028      C1034   1.325       .  A
O1028     Co1043   2.184       .  S
O1029      C1032   1.270       .  A
O1029     Co1046   1.995       .  S
O1030      C1031   1.265       .  A
O1030     Co1045   1.905       .  S
C1031      C1097   1.519       .  S
C1032      C1121   1.483       .  S
C1033      C1086   1.479       .  S
O1035      C1048   1.252       .  A
O1035     Co1043   2.015       .  S
O1036      C1049   1.254       .  A
O1036     Co1044   1.929       .  S
O1037      C1050   1.303       .  A
O1037     Co1045   2.084       .  S
O1038      C1051   1.275       .  A
O1038     Co1046   2.024       .  S
O1039      C1051   1.270       .  A
O1040     Co1043   1.921       .  S
O1041      C1048   1.251       .  A
O1041     Co1046   1.983       .  S
O1042      C1049   1.280       .  A
O1042     Co1045   2.018       .  S
Co1043     O1047   2.085       .  S
Co1046     O1047   1.880       .  S
C1048      C1081   1.481       .  S
C1050      C1126   1.483       .  S
C1051      C1101   1.491       .  S
O1052      C1060   1.279       .  A
O1052     Co1448   1.810       .  S
O1053      C1061   1.256       .  A
O1053     Co1449   1.965   1_545  S
O1054      C1062   1.296       .  A
O1054     Co1074   2.089       .  S
O1055      C1063   1.269       .  A
O1055     Co1075   1.992       .  S
O1056      C1062   1.267       .  A
O1056     Co1073   1.873       .  S
O1057      C1063   1.273       .  A
O1057     Co1072   2.002       .  S
O1058      C1061   1.276       .  A
O1058     Co1075   2.050       .  S
O1059      C1060   1.312       .  A
O1059     Co1074   2.109       .  S
C1061      C1118   1.477       .  S
C1062      C1090   1.462       .  S
C1063      C1082   1.491       .  S
O1064      C1077   1.284       .  A
O1064     Co1072   2.025       .  S
O1065      C1078   1.301       .  A
O1065     Co1073   2.095       .  S
O1066      C1079   1.249       .  A
O1066     Co1074   1.989       .  S
O1067      C1080   1.247       .  A
O1067     Co1075   1.926       .  S
O1068      C1080   1.264       .  A
O1068     Co1449   2.002   1_545  S
O1069      C1079   1.255       .  A
O1069     Co1448   2.009       .  S
O1070      C1077   1.270       .  A
O1070     Co1075   1.975       .  S
O1071      C1078   1.276       .  A
O1071     Co1074   1.906       .  S
Co1072     O1428   1.799   1_545  S
Co1072     O1445   2.013   1_545  S
Co1072     O1452   1.853       .  S
Co1073     O1429   1.964       .  S
Co1073     O1444   1.998       .  S
Co1073     O1076   1.964       .  S
Co1074     O1076   2.002       .  S
Co1075     O1452   1.978       .  S
O1076     Co1448   1.850       .  S
O1076     Co1451   1.970       .  S
C1077      C1093   1.474       .  S
C1078      C1085   1.470       .  S
C1079      C1114   1.464       .  S
C1081      H1083   1.085       .  S
C1081      C1082   1.352       .  D
C1082      H1084   1.084       .  S
C1085      H1087   1.088       .  S
C1085      C1086   1.346       .  D
C1086      H1088   1.088       .  S
C1089      H1091   1.089       .  S
C1089      C1090   1.339       .  D
C1090      H1092   1.088       .  S
C1093      H1095   1.088       .  S
C1093      C1094   1.346       .  D
C1094      H1096   1.085       .  S
C1097      H1099   1.089       .  S
C1097      C1098   1.369       .  D
C1098      H1100   1.090       .  S
C1101      H1103   1.085       .  S
C1101      C1102   1.352       .  D
C1102      H1104   1.084       .  S
C1105      H1107   1.084       .  S
C1105      C1106   1.360       .  D
C1106      H1108   1.085       .  S
C1109      H1111   1.088       .  S
C1109      C1110   1.351       .  D
C1113      H1115   1.088       .  S
C1113      C1114   1.346       .  D
C1114      H1116   1.090       .  S
C1117      H1495   1.085       .  S
C1117      C1118   1.345       .  D
C1118      H1120   1.085       .  S
H1119      C1493   1.088       .  S
C1121      H1123   1.090       .  S
C1121      C1122   1.352       .  D
C1122      H1124   1.091       .  S
C1125      H1127   1.079       .  S
C1125      C1126   1.353       .  D
C1126      H1128   1.081       .  S
C1129      C1130   1.490       .  S
C1129      C1135   1.499       .  S
C1129      C1133   1.504       .  S
C1129      C1248   1.468       .  S
C1130      H1137   1.089       .  S
C1130      C1131   1.358       .  D
C1131      C1132   1.569       .  S
C1131      C1190   1.472       .  S
C1132      C1136   1.571       .  S
C1132      C1134   1.571       .  S
C1132      H1138   1.110       .  S
C1133      H1139   1.087       .  S
C1133      C1134   1.356       .  D
C1134      C1164   1.478       .  S
C1135      H1140   1.087       .  S
C1135      C1136   1.378       .  D
C1136      C1222   1.502       .  S
C1141      C1142   1.533       .  S
C1141      C1147   1.529       .  S
C1141      C1145   1.507       .  S
C1141      C1268   1.471       .  S
C1142      H1149   1.088       .  S
C1142      C1143   1.341       .  D
C1143      C1144   1.539       .  S
C1143      C1237   1.447       .  S
C1144      C1148   1.531       .  S
C1144      C1146   1.538       .  S
C1144      H1150   1.111       .  S
C1145      H1151   1.082       .  S
C1145      C1146   1.362       .  D
C1146      C1179   1.449       .  S
C1147      H1152   1.083       .  S
C1147      C1148   1.366       .  D
C1148      C1210   1.458       .  S
O1153      C1161   1.293       .  A
O1154      C1162   1.268       .  A
O1155      C1351   1.269       .  A
O1156      C1164   1.251       .  A
O1156     Co1364   1.989       .  S
O1157      C1163   1.288       .  A
O1157     Co1174   2.066   1_565  S
O1158      C1164   1.266       .  A
O1159      C1162   1.265       .  A
O1159     Co1176   1.966       .  S
O1160      C1161   1.259   1_545  A
C1161      C1301   1.483       .  S
C1162      C1310   1.468       .  S
C1163      C1298   1.498       .  S
C1163      O1343   1.270   1_554  A
O1165      C1178   1.265       .  A
O1165     Co1173   1.975       .  S
O1166      C1179   1.241       .  A
O1167      C1180   1.299       .  A
O1167     Co1175   2.124       .  S
O1168     Co1176   2.019       .  S
O1170     Co1173   1.896       .  S
O1171      C1178   1.282       .  A
O1172      C1179   1.251       .  A
O1172     Co1363   1.984   1_554  S
Co1175     O1360   1.980       .  S
Co1176     O1344   1.988   1_554  S
Co1176     O1365   2.025       .  S
O1177     Co1364   2.035       .  S
C1178      C1294   1.479       .  S
C1180      C1313   1.483       .  S
C1181      C1305   1.473       .  S
O1182      C1190   1.294       .  A
O1182     Co1202   2.080       .  S
O1183      C1191   1.274       .  A
O1183     Co1203   2.041       .  S
O1184      C1192   1.257       .  A
O1184     Co1392   2.002   1_554  S
O1185      C1193   1.263       .  A
O1185     Co1393   1.864       .  S
O1186      C1192   1.263       .  A
O1186     Co1203   1.990       .  S
O1187      C1193   1.310       .  A
O1187     Co1202   2.122       .  S
O1188      C1191   1.263       .  A
O1188     Co1205   2.001       .  S
O1189      C1190   1.272       .  A
O1189     Co1204   1.857       .  S
C1191      C1290   1.500       .  S
C1192      C1277   1.471       .  S
C1193      C1293   1.485       .  S
O1194      C1207   1.247       .  A
O1194     Co1202   1.954       .  S
O1195      C1208   1.274       .  A
O1195     Co1203   2.019       .  S
O1196      C1209   1.251       .  A
O1196     Co1204   2.003       .  S
O1197      C1210   1.260       .  A
O1197     Co1205   1.971       .  S
O1198      C1210   1.263       .  A
O1198     Co1203   1.983       .  S
O1199      C1209   1.263       .  A
O1199     Co1202   2.026       .  S
O1200      C1207   1.249       .  A
O1200     Co1393   1.982       .  S
O1201      C1396   1.267       .  A
O1201     Co1204   2.013       .  S
Co1202     O1206   2.265       .  S
Co1203     O1394   2.096   1_554  S
Co1204     O1372   1.989       .  S
Co1204     O1206   1.892       .  S
Co1205     O1373   1.850       .  S
Co1205     O1388   1.995   1_554  S
Co1205     O1394   1.908   1_554  S
O1206     Co1391   2.096       .  S
O1206     Co1393   1.907       .  S
C1207      C1282   1.465       .  S
C1208      C1297   1.493       .  S
C1208      O1389   1.269       .  A
C1209      C1286   1.504       .  S
O1211      C1219   1.311       .  A
O1212      C1220   1.267       .  A
O1213      C1221   1.256       .  A
O1213     Co1233   1.980       .  S
O1214      C1222   1.272       .  A
O1214     Co1234   1.801       .  S
O1215      C1221   1.270       .  A
O1215     Co1232   2.034       .  S
O1216      C1222   1.324       .  A
O1216     Co1231   2.180       .  S
O1217      C1220   1.270       .  A
O1217     Co1234   1.992       .  S
O1218      C1219   1.265       .  A
O1218     Co1233   1.897       .  S
C1219      C1285   1.512       .  S
C1220      C1309   1.481       .  S
C1221      C1274   1.483       .  S
O1223      C1236   1.251       .  A
O1223     Co1231   2.014       .  S
O1224      C1237   1.251       .  A
O1224     Co1232   1.924       .  S
O1225      C1238   1.301       .  A
O1225     Co1233   2.081       .  S
O1226      C1239   1.277       .  A
O1226     Co1234   2.028       .  S
O1227      C1239   1.274       .  A
O1228     Co1231   1.914       .  S
O1229      C1236   1.250       .  A
O1229     Co1234   1.977       .  S
O1230      C1237   1.279       .  A
O1230     Co1233   2.018       .  S
Co1231     O1235   2.088       .  S
Co1234     O1235   1.879       .  S
C1236      C1269   1.477       .  S
C1238      C1314   1.476       .  S
C1239      C1289   1.499       .  S
O1240      C1248   1.279       .  A
O1241      C1249   1.257       .  A
O1242      C1250   1.298       .  A
O1242     Co1262   2.101       .  S
O1243      C1251   1.272       .  A
O1243     Co1263   1.996       .  S
O1244      C1250   1.264       .  A
O1244     Co1261   1.880       .  S
O1245      C1251   1.273       .  A
O1245     Co1260   1.997       .  S
O1246      C1249   1.275       .  A
O1246     Co1263   2.048       .  S
O1247      C1248   1.316       .  A
O1247     Co1262   2.117       .  S
C1249      C1306   1.479       .  S
C1250      C1278   1.470       .  S
C1251      C1270   1.489       .  S
O1252      C1265   1.280       .  A
O1252     Co1260   2.014       .  S
O1253      C1266   1.303       .  A
O1253     Co1261   2.102       .  S
O1254      C1267   1.251       .  A
O1254     Co1262   1.999       .  S
O1255      C1268   1.245       .  A
O1255     Co1263   1.922       .  S
O1256      C1268   1.263       .  A
O1257      C1267   1.253       .  A
O1258      C1265   1.265       .  A
O1258     Co1263   1.968       .  S
O1259      C1266   1.278       .  A
O1259     Co1262   1.909       .  S
Co1261     O1264   1.966   1_565  S
Co1262     O1264   2.003   1_565  S
C1265      C1281   1.467       .  S
C1266      C1273   1.478       .  S
C1267      C1302   1.470       .  S
C1269      H1271   1.084       .  S
C1269      C1270   1.350       .  D
C1270      H1272   1.083       .  S
C1273      H1275   1.088       .  S
C1273      C1274   1.349       .  D
C1274      H1276   1.087       .  S
C1277      H1279   1.087       .  S
C1277      C1278   1.345       .  D
C1278      H1280   1.086       .  S
C1281      H1283   1.086       .  S
C1281      C1282   1.341       .  D
C1282      H1284   1.084       .  S
C1285      H1287   1.090       .  S
C1285      C1286   1.365       .  D
C1286      H1288   1.090       .  S
C1289      H1291   1.082       .  S
C1289      C1290   1.355       .  D
C1290      H1292   1.081       .  S
C1293      H1295   1.085       .  S
C1293      C1294   1.358       .  D
C1294      H1296   1.086       .  S
C1297      H1299   1.086   1_554  S
C1297      C1298   1.355       .  D
C1298      H1488   1.086       .  S
H1300      C1486   1.087       .  S
C1301      H1303   1.081       .  S
C1301      C1302   1.346       .  D
C1302      H1304   1.084       .  S
C1305      C1306   1.346       .  D
C1306      H1308   1.086       .  S
C1309      H1311   1.090       .  S
C1309      C1310   1.352       .  D
C1310      H1312   1.092       .  S
C1313      H1315   1.086       .  S
C1313      C1314   1.348       .  D
C1314      H1316   1.086       .  S
C1317      C1318   1.502       .  S
C1317      C1323   1.527       .  S
C1317      C1321   1.515       .  S
C1317      C1436   1.483       .  S
C1318      H1325   1.089       .  S
C1318      C1319   1.355       .  D
C1319      C1320   1.558       .  S
C1319      C1378   1.471       .  S
C1320      C1324   1.565       .  S
C1320      C1322   1.563       .  S
C1320      H1326   1.110       .  S
C1321      H1327   1.087       .  S
C1321      C1322   1.351       .  D
C1322      C1352   1.480       .  S
C1323      H1328   1.086       .  S
C1323      C1324   1.378       .  D
C1324      C1410   1.491       .  S
C1329      C1330   1.531       .  S
C1329      C1335   1.525       .  S
C1329      C1333   1.508       .  S
C1329      C1456   1.470       .  S
C1330      H1337   1.087       .  S
C1330      C1331   1.343       .  D
C1331      C1332   1.539       .  S
C1331      C1425   1.447       .  S
C1332      C1336   1.529       .  S
C1332      C1334   1.537       .  S
C1332      H1338   1.111       .  S
C1333      H1339   1.081       .  S
C1333      C1334   1.364       .  D
C1334      C1367   1.445       .  S
C1335      H1340   1.080       .  S
C1335      C1336   1.363       .  D
C1336      C1398   1.456       .  S
O1341      C1349   1.298       .  A
O1342      C1350   1.264       .  A
O1344      C1352   1.250       .  A
O1345      C1351   1.288       .  A
O1345     Co1362   2.063   1_565  S
O1346      C1352   1.266       .  A
O1347      C1350   1.262       .  A
O1347     Co1364   1.958       .  S
O1348      C1349   1.258   1_545  A
C1349      C1489   1.493       .  S
C1350      C1498   1.451       .  S
C1351      C1486   1.495       .  S
O1353      C1366   1.262       .  A
O1353     Co1361   1.975       .  S
O1354      C1367   1.240       .  A
O1355      C1368   1.301       .  A
O1355     Co1363   2.133       .  S
O1356     Co1364   2.022       .  S
O1358     Co1361   1.898       .  S
O1359      C1366   1.284       .  A
O1360      C1367   1.249       .  A
C1366      C1482   1.480       .  S
C1368      C1501   1.490       .  S
C1369      C1493   1.470       .  S
O1370      C1378   1.297       .  A
O1370     Co1390   2.079       .  S
O1371      C1379   1.268       .  A
O1371     Co1391   2.017       .  S
O1372      C1380   1.255       .  A
O1373      C1381   1.260   1_554  A
O1374      C1380   1.266       .  A
O1374     Co1391   2.002       .  S
O1375      C1381   1.315       .  A
O1375     Co1390   2.139       .  S
O1376      C1379   1.263       .  A
O1376     Co1393   1.995       .  S
O1377      C1378   1.274       .  A
O1377     Co1392   1.866       .  S
C1379      C1478   1.479       .  S
C1380      C1465   1.467       .  S
C1381      C1481   1.489       .  S
O1382      C1395   1.246       .  A
O1382     Co1390   1.945       .  S
O1383      C1396   1.271       .  A
O1383     Co1391   2.010       .  S
O1384      C1397   1.252       .  A
O1384     Co1392   2.010       .  S
O1385      C1398   1.263       .  A
O1385     Co1393   1.967       .  S
O1386      C1398   1.265       .  A
O1386     Co1391   1.984       .  S
O1387      C1397   1.266       .  A
O1387     Co1390   2.038       .  S
O1388      C1395   1.254       .  A
O1389     Co1392   2.014   1_554  S
Co1390     O1394   2.265       .  S
Co1392     O1394   1.900       .  S
C1395      C1470   1.469       .  S
C1396      C1485   1.487       .  S
C1397      C1474   1.516       .  S
O1399      C1407   1.313       .  A
O1400      C1408   1.258       .  A
O1401      C1409   1.256       .  A
O1401     Co1421   1.978       .  S
O1402      C1410   1.277       .  A
O1402     Co1422   2.009       .  S
O1403      C1409   1.276       .  A
O1403     Co1420   2.051       .  S
O1404      C1410   1.276       .  A
O1404     Co1419   2.003       .  S
O1405      C1408   1.264       .  A
O1405     Co1422   1.987       .  S
O1406      C1407   1.267       .  A
O1406     Co1421   1.911       .  S
C1407      C1473   1.521       .  S
C1408      C1497   1.460       .  S
C1409      C1462   1.492       .  S
O1411      C1424   1.258       .  A
O1411     Co1419   2.023       .  S
O1412      C1425   1.256       .  A
O1412     Co1420   1.930       .  S
O1413      C1426   1.301       .  A
O1413     Co1421   2.083       .  S
O1414      C1427   1.269       .  A
O1414     Co1422   1.865       .  S
O1415      C1427   1.308       .  A
O1416     Co1419   1.915       .  S
O1417      C1424   1.251       .  A
O1417     Co1422   1.991       .  S
O1418      C1425   1.282       .  A
O1418     Co1421   2.016       .  S
Co1419     O1423   2.046       .  S
Co1422     O1423   1.879       .  S
C1424      C1457   1.480       .  S
C1426      C1502   1.482       .  S
C1427      C1477   1.486       .  S
O1428      C1436   1.280       .  A
O1429      C1437   1.255       .  A
O1430      C1438   1.295       .  A
O1430     Co1450   2.091       .  S
O1431      C1439   1.271       .  A
O1431     Co1451   2.005       .  S
O1432      C1438   1.266       .  A
O1432     Co1449   1.882       .  S
O1433      C1439   1.272       .  A
O1433     Co1448   1.998       .  S
O1434      C1437   1.273       .  A
O1434     Co1451   2.045       .  S
O1435      C1436   1.314       .  A
O1435     Co1450   2.123       .  S
C1437      C1494   1.475       .  S
C1438      C1466   1.467       .  S
C1439      C1458   1.478       .  S
O1440      C1453   1.282       .  A
O1440     Co1448   2.019       .  S
O1441      C1454   1.305       .  A
O1441     Co1449   2.109       .  S
O1442      C1455   1.251       .  A
O1442     Co1450   2.002       .  S
O1443      C1456   1.248       .  A
O1443     Co1451   1.930       .  S
O1444      C1456   1.264       .  A
O1445      C1455   1.257       .  A
O1446      C1453   1.266       .  A
O1446     Co1451   1.969       .  S
O1447      C1454   1.277       .  A
O1447     Co1450   1.916       .  S
Co1449     O1452   1.970   1_565  S
Co1450     O1452   2.013   1_565  S
C1453      C1469   1.470       .  S
C1454      C1461   1.487       .  S
C1455      C1490   1.480       .  S
C1457      H1459   1.086       .  S
C1457      C1458   1.344       .  D
C1458      H1460   1.084       .  S
C1461      H1463   1.086       .  S
C1461      C1462   1.355       .  D
C1462      H1464   1.086       .  S
C1465      H1467   1.086       .  S
C1465      C1466   1.340       .  D
C1466      H1468   1.085       .  S
C1469      H1471   1.088       .  S
C1469      C1470   1.345       .  D
C1470      H1472   1.085       .  S
C1473      H1475   1.091       .  S
C1473      C1474   1.370       .  D
C1474      H1476   1.090       .  S
C1477      H1479   1.090       .  S
C1477      C1478   1.349       .  D
C1478      H1480   1.091       .  S
C1481      H1483   1.084       .  S
C1481      C1482   1.364       .  D
C1482      H1484   1.085       .  S
C1485      H1487   1.087       .  S
C1485      C1486   1.353       .  D
C1489      H1491   1.079       .  S
C1489      C1490   1.354       .  D
C1490      H1492   1.080       .  S
C1493      C1494   1.345       .  D
C1494      H1496   1.087       .  S
C1497      H1499   1.090       .  S
C1497      C1498   1.347       .  D
C1498      H1500   1.093       .  S
C1501      H1503   1.080       .  S
C1501      C1502   1.354       .  D
C1502      H1504   1.082       .  S
