geometry optimzed in LAMMPS
_audit_creation_date              2020-12-01 
_audit_creation_method            'lammps2cif' 
_symmetry_space_group_name_H-M    'P1' 
_symmetry_Int_Tables_number       1 
_symmetry_cell_setting            triclinic 
loop_ 
_symmetry_equiv_pos_as_xyz 
  x,y,z 
_cell_length_a                    39.74611602 
_cell_length_b                    39.49398146982709 
_cell_length_c                    41.363783102019816 
_cell_angle_alpha                 88.10171674104531 
_cell_angle_beta                  91.39136378710042 
_cell_angle_gamma                 118.93233660221664 
loop_ 
_atom_site_label 
_atom_site_type_symbol 
_atom_site_fract_x 
_atom_site_fract_y 
_atom_site_fract_z 
_atom_site_charge 
N1          N  0.53446169  0.84642635  0.01128042    -0.02900
C2          C  0.54536394  0.86249173  0.04088942    -0.00300
C3          C  0.55737420  0.90180577  0.03864003    -0.23200
C4          C  0.57289151  0.88506370  0.48643590    -0.23400
C5          C  0.53708692  0.86141595  0.47319889    -0.00400
H6          H  0.56375563  0.92108321  0.05863857     0.13400
H7          H  0.59723427  0.90835663  0.47416263     0.13400
N8          N  0.18197662  0.79717682  0.48674716    -0.02900
C9          C  0.19527549  0.78378549  0.01277030    -0.00300
C10         C  0.21781871  0.76700850  0.00630698    -0.23200
C11         C  0.22378508  0.77652800  0.47624145    -0.23400
C12         C  0.20025395  0.79004871  0.46271221    -0.00400
H13         H  0.23737829  0.76369014  0.02313330     0.13400
H14         H  0.24524753  0.77266775  0.46371923     0.13400
O15         O  0.47929037  0.99571165  0.27628649    -0.79500
O16         O  0.50823236  0.06811474  0.20027345    -0.79600
O17         O  0.42279908  0.93874143  0.20585080    -0.79600
O18         O  0.49887586  0.08633663  0.27004416    -0.79500
O19         O  0.48002827  0.98936051  0.19858313    -0.79600
O20         O  0.48334529  0.05230511  0.31623443    -0.79600
O21         O  0.48384660  0.10525593  0.20942754    -0.79500
O22         O  0.42291875  0.94357037  0.27004238    -0.79600
C23         C  0.45764442  0.95935181  0.27991017     1.10200
C24         C  0.50997466  0.10072515  0.19711143     1.10000
C25         C  0.45816482  0.95317459  0.19814318     1.10200
C26         C  0.50651854  0.08237471  0.30014505     1.10100
O27         O  0.42343416  0.05839619  0.28905545    -0.79500
O28         O  0.41235496  0.98108656  0.16493377    -0.79600
O29         O  0.36834412  0.97239327  0.26624068    -0.79600
O30         O  0.40397668  0.05976887  0.21423149    -0.79500
O31         O  0.43508815  0.05702238  0.17133759    -0.79600
O32         O  0.41088226  0.98696777  0.30496771    -0.79600
O33         O  0.44798573  0.11214141  0.25945780    -0.79500
O34         O  0.36764399  0.96824965  0.20037825    -0.79600
Co35       Co  0.45398328  0.02837011  0.27855576     1.51500
Co36       Co  0.45877951  0.02385153  0.18677330     1.51700
Co37       Co  0.39691644  0.95929075  0.23542664     1.51600
Co38       Co  0.44795695  0.06874010  0.24258802     1.51500
O39         O  0.43770953  0.01556900  0.23219500    -1.41500
C40         C  0.42831828  0.09297624  0.28344197     1.10100
C41         C  0.37702454  0.96616328  0.17196820     1.10200
C42         C  0.37588126  0.97042892  0.29577620     1.10100
C43         C  0.41002466  0.06400571  0.18397320     1.10100
N44         N  0.37718877  0.22474027  0.48619751    -0.02900
C45         C  0.35343320  0.20993973  0.46004105    -0.00300
C46         C  0.31619684  0.18702721  0.47067868    -0.23200
C47         C  0.31794675  0.18417392  0.50377249    -0.23400
C48         C  0.35618850  0.20595557  0.51265854    -0.00400
H49         H  0.29180515  0.16801083  0.45594715     0.13400
H50         H  0.28397344  0.15725248  0.00887663     0.13400
N51         N  0.64738428  0.27869197  0.48642103    -0.02900
C52         C  0.63297208  0.27014852  0.45544746    -0.00300
C53         C  0.59431302  0.25948722  0.45489965    -0.23200
C54         C  0.58889297  0.27664516  0.99047009    -0.23400
C55         C  0.61895581  0.28112283  0.01062205    -0.00400
H56         H  0.57475061  0.24720987  0.43461821     0.13400
H57         H  0.55920646  0.26591857  0.99682890     0.13400
O58         O  0.97260192  0.56401635  0.30611006    -0.79500
O59         O  0.89824503  0.53201235  0.17223381    -0.79600
O60         O  0.98221818  0.61309815  0.20404589    -0.79600
O61         O  0.84423206  0.50727322  0.26159935    -0.79500
O62         O  0.97541820  0.57444663  0.16452271    -0.79600
O63         O  0.89741684  0.54222223  0.28923500    -0.79600
O64         O  0.89066271  0.55843398  0.21554718    -0.79500
O65         O  0.97941073  0.60650448  0.26893214    -0.79600
C66         C  0.98483358  0.59894122  0.29763909     1.10200
C67         C  0.88459839  0.55142140  0.18565154     1.10000
C68         C  0.98452646  0.60801071  0.17451025     1.10200
C69         C  0.86057895  0.52888297  0.28513638     1.10100
O70         O  0.91578647  0.49097329  0.31742929    -0.79500
O71         O  0.98615892  0.51168020  0.19123323    -0.79600
O72         O  0.02023436  0.56136234  0.26749578    -0.79600
O73         O  0.86094228  0.47765393  0.21131537    -0.79500
O74         O  0.90656147  0.46594241  0.19694320    -0.79600
O75         O  0.97363790  0.50161254  0.27630900    -0.79600
O76         O  0.88323988  0.46854681  0.27214517    -0.79500
O77         O  0.02624287  0.57231774  0.20218263    -0.79600
Co78       Co  0.93536192  0.52012288  0.27882414     1.51500
Co79       Co  0.94177214  0.52111162  0.18465283     1.51700
Co80       Co  0.99851303  0.58583701  0.23562721     1.51600
Co81       Co  0.89137590  0.51730404  0.24382450     1.51500
O82         O  0.94656905  0.53777087  0.23183186    -1.41500
C83         C  0.88706140  0.46451423  0.30302443     1.10100
C84         C  0.01971451  0.54051441  0.18997287     1.10200
C85         C  0.00881730  0.52710710  0.27897873     1.10100
C86         C  0.87129938  0.45630905  0.19735732     1.10100
N87         N  0.17629503  0.52008329  0.98453833    -0.02900
C88         C  0.18460161  0.54435392  0.00984633    -0.00300
C89         C  0.19762366  0.58167321  0.99778149    -0.23200
C90         C  0.19856687  0.57541329  0.46977497    -0.23400
C91         C  0.18291855  0.53714411  0.46130379    -0.00400
H92         H  0.20239198  0.60645176  0.01159485     0.13400
H93         H  0.20200420  0.59928056  0.45400867     0.13400
N94         N  0.68649466  0.32137062  0.00019723    -0.02900
C95         C  0.69287703  0.34000638  0.02902082    -0.00300
C96         C  0.70948304  0.37955450  0.02377811    -0.23200
C97         C  0.70548181  0.37882062  0.48509203    -0.23400
C98         C  0.69657805  0.34403881  0.47137287    -0.00400
H99         H  0.72082971  0.40146997  0.04202411     0.13400
H100        H  0.72043916  0.40737702  0.47383836     0.13400
N101        N  0.73924721  0.61567404  0.48044247    -0.02900
C102        C  0.76212001  0.60759434  0.00917901    -0.00300
C103        C  0.79728452  0.61604311  0.99668830    -0.23200
C104        C  0.79918666  0.64986749  0.45962063    -0.23400
C105        C  0.76114722  0.62438211  0.45316913    -0.00400
H106        H  0.82366543  0.62374375  0.01007072     0.13400
H107        H  0.82312552  0.65882394  0.44334892     0.13400
N108        N  0.15121139  0.80578621  0.48274267    -0.02900
C109        C  0.13434571  0.80792120  0.45424578    -0.00300
C110        C  0.10877984  0.82128988  0.46015934    -0.23200
C111        C  0.11190721  0.82396227  0.99233611    -0.23400
C112        C  0.13405669  0.80855735  0.00544226    -0.00400
H113        H  0.08778648  0.82172204  0.44321627     0.13400
H114        H  0.09147641  0.82911324  0.00518927     0.13400
O115        O  0.40497328  0.46817746  0.15433230    -0.79500
O116        O  0.35188846  0.47137022  0.27879114    -0.79600
O117        O  0.44855981  0.44469503  0.25757840    -0.79600
O118        O  0.36752631  0.53292000  0.20584660    -0.79500
O119        O  0.39073568  0.42967160  0.27092776    -0.79600
O120        O  0.35819738  0.47402609  0.19838461    -0.79600
O121        O  0.36770014  0.53269565  0.27176230    -0.79500
O122        O  0.41370458  0.43945491  0.19768753    -0.79600
C123        C  0.40372661  0.43829791  0.16740694     1.10200
C124        C  0.34428612  0.49872802  0.28222178     1.10000
C125        C  0.41774325  0.42152244  0.27139398     1.10200
C126        C  0.34636905  0.49868682  0.19585475     1.10100
O127        O  0.41991375  0.54009782  0.16833059    -0.79500
O128        O  0.46008476  0.49536804  0.29823673    -0.79600
O129        O  0.49081103  0.47721217  0.20613150    -0.79600
O130        O  0.45063457  0.57750400  0.27268215    -0.79500
O131        O  0.41897598  0.53165840  0.30912863    -0.79600
O132        O  0.47311895  0.51679961  0.18226300    -0.79600
O133        O  0.45128072  0.58157032  0.20568384    -0.79500
O134        O  0.49395599  0.52471430  0.25440408    -0.79600
Co135      Co  0.41408058  0.49348402  0.19379266     1.51500
Co136      Co  0.40552073  0.48250801  0.28600791     1.51700
Co137      Co  0.45369013  0.48588926  0.22611692     1.51600
Co138      Co  0.41074780  0.55366376  0.23890843     1.51500
O139        O  0.41931363  0.50659264  0.24053746    -1.41500
C140        C  0.44267907  0.57455276  0.17610748     1.10100
C141        C  0.49239085  0.51733716  0.28468357     1.10200
C142        C  0.49667279  0.50272535  0.18462576     1.10100
C143        C  0.44122816  0.56705075  0.30175754     1.10100
N144        N  0.41412010  0.25840474  0.48681767    -0.02900
C145        C  0.42142298  0.27320167  0.01281811    -0.00300
C146        C  0.47116944  0.30300221  0.50618878    -0.23200
C147        C  0.47478465  0.30056442  0.47359024    -0.23400
C148        C  0.43887951  0.27442091  0.46172616    -0.00400
H149        H  0.47894314  0.32154147  0.02395821     0.13400
H150        H  0.49912552  0.32099331  0.45940830     0.13400
N151        N  0.17055726  0.47572238  0.49018260    -0.02900
C152        C  0.16351215  0.45193764  0.46462215    -0.00300
C153        C  0.15098789  0.41454399  0.47633925    -0.23200
C154        C  0.15327607  0.41585727  0.50948911    -0.23400
C155        C  0.16278555  0.45815153  0.01324033    -0.00400
H156        H  0.14699335  0.39009552  0.46244958     0.13400
H157        H  0.14453704  0.39622010  0.02006614     0.13400
N158        N  0.70226364  0.61366524  0.47978221    -0.02900
C159        C  0.68885586  0.62532282  0.45308456    -0.00300
C160        C  0.67052909  0.64559178  0.46216228    -0.23200
C161        C  0.67082067  0.64548565  0.49498993    -0.23400
C162        C  0.69048695  0.61190475  0.01295524    -0.00400
H163        H  0.65386829  0.65473065  0.44671438     0.13400
H164        H  0.66846584  0.65219353  0.02207291     0.13400
N165        N  0.47578778  0.76769019  0.49339223    -0.02900
C166        C  0.45029196  0.74592142  0.47048384    -0.00300
C167        C  0.43292602  0.76583745  0.45639507    -0.23200
C168        C  0.44957084  0.80166263  0.47021911    -0.23400
C169        C  0.47724407  0.80279804  0.49177571    -0.00400
H170        H  0.41461529  0.75761940  0.43508437     0.13400
H171        H  0.44633098  0.82610014  0.46158119     0.13400
C172        C  0.18374213  0.46377770  0.43280071    -0.11400
C173        C  0.16697550  0.44338528  0.40419761     0.04100
C174        C  0.18978592  0.44934415  0.37685944    -0.11900
C175        C  0.22956268  0.47510568  0.37757718     0.19000
C176        C  0.24583271  0.49666571  0.40559771    -0.08900
C177        C  0.22281936  0.49145189  0.43229890    -0.01900
H178        H  0.17661700  0.43321682  0.35522438     0.05500
C179        C  0.25416151  0.47903120  0.34953426     0.20900
H180        H  0.23597612  0.50881989  0.45299997     0.10700
C181        C  0.27395277  0.51486439  0.33316982    -0.15300
C182        C  0.30224812  0.52184143  0.31031598     0.03700
C183        C  0.31056990  0.49190890  0.30242300    -0.10600
C184        C  0.28864056  0.45521561  0.31750007    -0.00600
C185        C  0.26117107  0.44879883  0.34100882    -0.05800
H186        H  0.26869730  0.53830093  0.33949200     0.06700
H187        H  0.29420215  0.43168040  0.31233655     0.10100
Br188      Br  0.29988623  0.53221391  0.40966681    -0.05500
Br189      Br  0.11298778  0.40777140  0.40115778    -0.02400
Br190      Br  0.32953248  0.57394813  0.29322384     0.00400
Br191      Br  0.23671950  0.39926418  0.36299327    -0.04000
C192        C  0.18696343  0.47035606  0.04317395    -0.11400
C193        C  0.22650265  0.48142427  0.04213973     0.04100
C194        C  0.24772829  0.48677570  0.07063200    -0.11900
C195        C  0.23013432  0.47853289  0.10084401     0.19000
C196        C  0.19068714  0.46721669  0.10237974    -0.08900
C197        C  0.16935684  0.46289259  0.07365252    -0.01900
H198        H  0.27785329  0.49467713  0.06916194     0.05500
C199        C  0.25350241  0.47882033  0.12954476     0.20900
H200        H  0.13872816  0.45258593  0.07505079     0.10700
C201        C  0.26517508  0.50812878  0.15217646    -0.15300
C202        C  0.29331427  0.51354105  0.17571608     0.03700
C203        C  0.31072290  0.48946203  0.17667451    -0.10600
C204        C  0.29669451  0.45839471  0.15536333    -0.00600
C205        C  0.26863656  0.45307910  0.13200023    -0.05800
H206        H  0.25358608  0.52796332  0.15062567     0.06700
H207        H  0.30908243  0.43925608  0.15551903     0.10100
Br208      Br  0.16443217  0.45470560  0.14286015    -0.05500
Br209      Br  0.25217526  0.48197470  0.00353369    -0.02400
Br210      Br  0.30669237  0.55479860  0.20515669     0.00400
Br211      Br  0.25330663  0.41120706  0.10277491    -0.04000
C212        C  0.45528821  0.71722722  0.45199392    -0.11400
C213        C  0.42608784  0.67864129  0.44955562     0.04100
C214        C  0.42890115  0.65478091  0.42658931    -0.11900
C215        C  0.46054828  0.66906946  0.40570272     0.19000
C216        C  0.49062368  0.70718224  0.40932046    -0.08900
C217        C  0.48815208  0.73048916  0.43281335    -0.01900
H218        H  0.40570772  0.62538554  0.42425992     0.05500
C219        C  0.46035428  0.64482078  0.37897153     0.20900
H220        H  0.51155271  0.75976226  0.43523295     0.10700
C221        C  0.45703986  0.65585181  0.34696534    -0.15300
C222        C  0.45317688  0.63213755  0.32115114     0.03700
C223        C  0.45222195  0.59620889  0.32722359    -0.10600
C224        C  0.45684457  0.58588435  0.35923531    -0.00600
C225        C  0.46113259  0.60991929  0.38493174    -0.05800
H226        H  0.45613437  0.68254084  0.34214768     0.06700
H227        H  0.45624963  0.55853587  0.36440807     0.10100
Br228      Br  0.53504479  0.72909024  0.38212472    -0.05500
Br229      Br  0.38231524  0.65768613  0.47727931    -0.02400
Br230      Br  0.44545826  0.64906251  0.27885222     0.00400
Br231      Br  0.46798163  0.59395001  0.42775222    -0.04000
C232        C  0.45650203  0.60653867  0.15111337    -0.11400
C233        C  0.46162976  0.60069725  0.11839886     0.04100
C234        C  0.47145583  0.63068251  0.09520081    -0.11900
C235        C  0.47689475  0.66710586  0.10375644     0.19000
C236        C  0.47273342  0.67337953  0.13638498    -0.08900
C237        C  0.46265591  0.64335154  0.15967047    -0.01900
H238        H  0.47553418  0.62576471  0.07032718     0.05500
C239        C  0.48944558  0.69876755  0.07865556     0.20900
H240        H  0.45902675  0.64869597  0.18452427     0.10700
C241        C  0.46353223  0.71065265  0.06583383    -0.15300
C242        C  0.45408198  0.73974183  0.54842700     0.03700
C243        C  0.51195046  0.75583838  0.02814058    -0.10600
C244        C  0.53811535  0.74493844  0.04204872    -0.00600
C245        C  0.52706085  0.71638638  0.06650520    -0.05800
H246        H  0.43443687  0.69725957  0.07487095     0.06700
H247        H  0.56702365  0.75766041  0.03267396     0.10100
Br248      Br  0.48165564  0.72293465  0.15025151    -0.05500
Br249      Br  0.45831869  0.55349479  0.10401715    -0.02400
Br250      Br  0.41422378  0.75394280  0.54759897     0.00400
Br251      Br  0.56414487  0.70156297  0.08188023    -0.04000
C252        C  0.67855650  0.60666139  0.42094788    -0.11400
C253        C  0.67890724  0.62861334  0.39313601     0.04100
C254        C  0.65313361  0.61083890  0.36757403    -0.11900
C255        C  0.62702318  0.57112873  0.36903656     0.19000
C256        C  0.63110317  0.54829114  0.39416316    -0.08900
C257        C  0.65703596  0.56614396  0.41976481    -0.01900
H258        H  0.65128317  0.62860862  0.34783328     0.05500
C259        C  0.59266164  0.55577535  0.34731733     0.20900
H260        H  0.65762467  0.54854708  0.44006966     0.10700
C261        C  0.59647070  0.55332313  0.31396105    -0.15300
C262        C  0.56469195  0.54150192  0.29282162     0.03700
C263        C  0.52806919  0.53215728  0.30503552    -0.10600
C264        C  0.52471810  0.53500696  0.33849091    -0.00600
C265        C  0.55639204  0.54692501  0.35940281    -0.05800
H266        H  0.62433583  0.56060189  0.30433201     0.06700
H267        H  0.49722991  0.52832183  0.34856681     0.10100
Br268      Br  0.59929531  0.49312964  0.39593835    -0.05500
Br269      Br  0.71112875  0.68371551  0.39062769    -0.02400
Br270      Br  0.57347399  0.53726320  0.24808494     0.00400
Br271      Br  0.54886946  0.55270569  0.40415716    -0.04000
C272        C  0.67363730  0.58785460  0.04263034    -0.11400
C273        C  0.63943733  0.55202845  0.04108405     0.04100
C274        C  0.61549774  0.53753897  0.06802514    -0.11900
C275        C  0.62499872  0.55798936  0.09683250     0.19000
C276        C  0.66115452  0.59118656  0.09973631    -0.08900
C277        C  0.68473328  0.60629406  0.07259061    -0.01900
H278        H  0.58798227  0.51152473  0.06575913     0.05500
C279        C  0.59503439  0.54608566  0.12187193     0.20900
H280        H  0.71205531  0.65687103  0.56379735     0.10700
C281        C  0.58189480  0.51021995  0.13787867    -0.15300
C282        C  0.55034812  0.49567091  0.15860316     0.03700
C283        C  0.53102729  0.51732129  0.16363339    -0.10600
C284        C  0.54467979  0.55352586  0.14779803    -0.00600
C285        C  0.57616851  0.56786289  0.12700986    -0.05800
H286        H  0.59570315  0.49294365  0.13351981     0.06700
H287        H  0.53052173  0.57065928  0.15123826     0.10100
Br288      Br  0.67847879  0.61772804  0.13976651    -0.05500
Br289      Br  0.62051227  0.52420250  0.00196449    -0.02400
Br290      Br  0.53427375  0.44489211  0.17712586     0.00400
Br291      Br  0.59049250  0.61614103  0.10451151    -0.04000
C292        C  0.41766410  0.39148228  0.29373843    -0.11400
C293        C  0.38596233  0.35416519  0.29769059     0.04100
C294        C  0.38680485  0.32900700  0.32217221    -0.11900
C295        C  0.41896991  0.34072580  0.34283501     0.19000
C296        C  0.45115516  0.37745181  0.33790715    -0.08900
C297        C  0.45037874  0.40219278  0.31345406    -0.01900
H298        H  0.36206708  0.30061502  0.32557528     0.05500
C299        C  0.41790791  0.31629927  0.37114421     0.20900
H300        H  0.47500274  0.43083845  0.31087322     0.10700
C301        C  0.44281202  0.30039889  0.37260326    -0.15300
C302        C  0.44806422  0.28391798  0.40150699     0.03700
C303        C  0.42757951  0.28246542  0.42930500    -0.10600
C304        C  0.40145539  0.29686994  0.42736426    -0.00600
C305        C  0.39658891  0.31374428  0.39867438    -0.05800
H306        H  0.45993736  0.30301017  0.35175580     0.06700
H307        H  0.38652680  0.29720570  0.44881956     0.10100
Br308      Br  0.49580876  0.39665964  0.36558704    -0.05500
Br309      Br  0.34192117  0.33606073  0.26958700    -0.02400
Br310      Br  0.48536261  0.26620465  0.40283103     0.00400
Br311      Br  0.36401139  0.33704325  0.39950658    -0.04000
C312        C  0.40123560  0.27593704  0.04159447    -0.11400
C313        C  0.41758201  0.28029332  0.07286437     0.04100
C314        C  0.40639531  0.29657027  0.09711964    -0.11900
C315        C  0.37799584  0.30749505  0.09111045     0.19000
C316        C  0.35749886  0.29726005  0.06144667    -0.08900
C317        C  0.36967051  0.28235354  0.03681574    -0.01900
H318        H  0.42232142  0.30372905  0.11974897     0.05500
C319        C  0.37747756  0.33756408  0.11161557     0.20900
H320        H  0.35624872  0.27860034  0.01313984     0.10700
C321        C  0.38454082  0.37249208  0.09628096    -0.15300
C322        C  0.39039249  0.40444912  0.11374070     0.03700
C323        C  0.39137843  0.40293253  0.14804362    -0.10600
C324        C  0.38297655  0.36743627  0.16359998    -0.00600
C325        C  0.37555985  0.33479396  0.14570259    -0.05800
H326        H  0.38699386  0.37554449  0.07018883     0.06700
H327        H  0.38261428  0.36511403  0.18977215     0.10100
Br328      Br  0.31488493  0.30634924  0.05233894    -0.05500
Br329      Br  0.45699441  0.26682249  0.08313000    -0.02400
Br330      Br  0.39866247  0.44910661  0.08784414     0.00400
Br331      Br  0.36242893  0.28712640  0.16876198    -0.04000
C332        C  0.85840083  0.56179038  0.16614795    -0.11400
C333        C  0.83733716  0.57879659  0.17897887     0.04100
C334        C  0.81199442  0.58570075  0.15891050    -0.11900
C335        C  0.80667739  0.57562281  0.12623786     0.19000
C336        C  0.82773646  0.55905888  0.11348255    -0.08900
C337        C  0.85251357  0.55181156  0.13333246    -0.01900
H338        H  0.79641187  0.59907189  0.16882031     0.05500
C339        C  0.78238794  0.58561750  0.10435929     0.20900
H340        H  0.86750866  0.53832211  0.12261277     0.10700
C341        C  0.79721001  0.62416160  0.09362197    -0.15300
C342        C  0.78474326  0.63301878  0.06421028     0.03700
C343        C  0.75780642  0.60296809  0.04473951    -0.10600
C344        C  0.73859859  0.56525269  0.05808015    -0.00600
C345        C  0.75019822  0.55662335  0.08811933    -0.05800
H346        H  0.82138757  0.64691415  0.10622392     0.06700
H347        H  0.71759968  0.54181445  0.04366696     0.10100
Br348      Br  0.82569170  0.54781848  0.06836798    -0.05500
Br349      Br  0.84073180  0.59285020  0.22341807    -0.02400
Br350      Br  0.81044589  0.68576187  0.04856715     0.00400
Br351      Br  0.72496648  0.50406930  0.10402032    -0.04000
C352        C  0.83792432  0.53928416  0.30719680    -0.11400
C353        C  0.79720695  0.52293617  0.30481117     0.04100
C354        C  0.77746128  0.53343524  0.32648872    -0.11900
C355        C  0.79705930  0.55964936  0.35091139     0.19000
C356        C  0.83719395  0.57528016  0.35392828    -0.08900
C357        C  0.85722429  0.56527053  0.33217583    -0.01900
H358        H  0.74652807  0.52100028  0.32432077     0.05500
C359        C  0.77561803  0.57077897  0.37317985     0.20900
H360        H  0.88808739  0.57778639  0.33504752     0.10700
C361        C  0.75934088  0.54823628  0.40120935    -0.15300
C362        C  0.74752144  0.56279697  0.42647816     0.03700
C363        C  0.75246623  0.60067551  0.42393684    -0.10600
C364        C  0.76403786  0.62085031  0.39408203    -0.00600
C365        C  0.77550067  0.60616310  0.36880479    -0.05800
H366        H  0.75856987  0.52053538  0.40446975     0.06700
H367        H  0.76825989  0.65003975  0.39168990     0.10100
Br368      Br  0.86575773  0.60994123  0.38790581    -0.05500
Br369      Br  0.76559540  0.48535399  0.27352845    -0.02400
Br370      Br  0.73055998  0.53211383  0.46553193     0.00400
Br371      Br  0.79488061  0.63725700  0.33010459    -0.04000
C372        C  0.84318134  0.42637554  0.17593327    -0.11400
C373        C  0.83434876  0.38723702  0.17714861     0.04100
C374        C  0.80496941  0.36048632  0.15702607    -0.11900
C375        C  0.78510899  0.37275354  0.13512877     0.19000
C376        C  0.79561738  0.41238047  0.13313749    -0.08900
C377        C  0.82368106  0.43834172  0.15374303    -0.01900
H378        H  0.79751095  0.33023288  0.15856221     0.05500
C379        C  0.75356692  0.34530776  0.11398842     0.20900
H380        H  0.83065710  0.46846971  0.15212328     0.10700
C381        C  0.71736116  0.34286295  0.11683808    -0.15300
C382        C  0.69342801  0.33583255  0.08970798     0.03700
C383        C  0.70403204  0.32752872  0.05984254    -0.10600
C384        C  0.73627881  0.32180147  0.05926934    -0.00600
C385        C  0.76162864  0.33161452  0.08581205    -0.05800
H386        H  0.71073244  0.35302908  0.13854996     0.06700
H387        H  0.74520509  0.31583921  0.03668570     0.10100
Br388      Br  0.77378653  0.43353135  0.10188212    -0.05500
Br389      Br  0.86038289  0.36915505  0.20668799    -0.02400
Br390      Br  0.65222711  0.34758238  0.09314665     0.00400
Br391      Br  0.81005072  0.33309652  0.08010586    -0.04000
C392        C  0.85738825  0.43125830  0.32222746    -0.11400
C393        C  0.82028832  0.40555525  0.30985328     0.04100
C394        C  0.79063690  0.38193331  0.33114170    -0.11900
C395        C  0.79691242  0.38351000  0.36465536     0.19000
C396        C  0.83433620  0.40657400  0.37681845    -0.08900
C397        C  0.86411143  0.42964836  0.35569215    -0.01900
H398        H  0.76190173  0.36397457  0.32165381     0.05500
C399        C  0.76380506  0.36565011  0.38685663     0.20900
H400        H  0.89212739  0.44858749  0.36599535     0.10700
C401        C  0.75954294  0.33556615  0.40825238    -0.15300
C402        C  0.73474201  0.32483448  0.43470161     0.03700
C403        C  0.71283465  0.34376775  0.43943295    -0.10600
C404        C  0.71407133  0.37067814  0.41566423    -0.00600
C405        C  0.73980171  0.38231089  0.39003670    -0.05800
H406        H  0.77778776  0.32247314  0.40577838     0.06700
H407        H  0.69737126  0.38537693  0.41864542     0.10100
Br408      Br  0.84547027  0.41142347  0.42241726    -0.05500
Br409      Br  0.80633212  0.40280580  0.26490128    -0.02400
Br410      Br  0.73559621  0.28720401  0.46469768     0.00400
Br411      Br  0.74504961  0.42514445  0.36306199    -0.04000
C412        C  0.05019278  0.53828695  0.17079934    -0.11400
C413        C  0.08257587  0.57166450  0.15790788     0.04100
C414        C  0.10608603  0.56780029  0.13514394    -0.11900
C415        C  0.09885114  0.53135061  0.12493006     0.19000
C416        C  0.06922700  0.49814248  0.14012845    -0.08900
C417        C  0.04497705  0.50175402  0.16232684    -0.01900
H418        H  0.12930201  0.59363257  0.12424740     0.05500
C419        C  0.12057044  0.52906775  0.09676237     0.20900
H420        H  0.02135996  0.47568678  0.17248420     0.10700
C421        C  0.16093181  0.54652495  0.09814102    -0.15300
C422        C  0.18231841  0.54962882  0.07052671     0.03700
C423        C  0.16345171  0.53377402  0.04104196    -0.10600
C424        C  0.12310384  0.51526353  0.03997056    -0.00600
C425        C  0.10181401  0.51375728  0.06707727    -0.05800
H426        H  0.17595476  0.55918552  0.12045426     0.06700
H427        H  0.10821274  0.50481716  0.01715325     0.10100
Br428      Br  0.06086173  0.44723113  0.13133653    -0.05500
Br429      Br  0.09580805  0.62383806  0.16808798    -0.02400
Br430      Br  0.23734810  0.57681599  0.07375747     0.00400
Br431      Br  0.04785027  0.49592359  0.06072583    -0.04000
C432        C  0.03643077  0.52034961  0.30005781    -0.11400
C433        C  0.02890643  0.48390640  0.31352912     0.04100
C434        C  0.05402297  0.48160005  0.33715381    -0.11900
C435        C  0.08614306  0.51510052  0.34874961     0.19000
C436        C  0.09415268  0.55117646  0.33445321    -0.08900
C437        C  0.07010482  0.55328214  0.31023763    -0.01900
H438        H  0.04780728  0.45351596  0.34719377     0.05500
C439        C  0.11026969  0.51285387  0.37639066     0.20900
H440        H  0.07690013  0.58174938  0.30078559     0.10700
C441        C  0.15047321  0.53141562  0.37322268    -0.15300
C442        C  0.17469064  0.53885469  0.40032614     0.03700
C443        C  0.15904863  0.52393436  0.43114953    -0.10600
C444        C  0.11888979  0.50174180  0.43379726    -0.00600
C445        C  0.09453859  0.49699361  0.40709582    -0.05800
H446        H  0.16321584  0.54322903  0.34986023     0.06700
H447        H  0.10624819  0.49084499  0.45733437     0.10100
Br448      Br  0.13513456  0.59975838  0.34899235    -0.05500
Br449      Br  0.98487879  0.43632759  0.30137793    -0.02400
Br450      Br  0.22860919  0.57287194  0.39416674     0.00400
Br451      Br  0.04039414  0.47309017  0.41523598    -0.04000
C452        C  0.00411743  0.64246190  0.15289805    -0.11400
C453        C  0.99214524  0.64337923  0.12076995     0.04100
C454        C  0.01508191  0.67449611  0.10012628    -0.11900
C455        C  0.05098172  0.70418157  0.11044460     0.19000
C456        C  0.06183067  0.70456914  0.14316780    -0.13700
C457        C  0.03814924  0.67411854  0.16413059    -0.01900
H458        H  0.00578773  0.67451761  0.07528325     0.05500
C459        C  0.07739041  0.73215532  0.08592515     0.20900
H460        H  0.04775491  0.67393486  0.18885035     0.10700
C461        C  0.09118965  0.77213705  0.08869514    -0.15300
C462        C  0.11327186  0.79825750  0.06405844     0.03700
C463        C  0.12059691  0.78434277  0.03557068    -0.10600
C464        C  0.10809983  0.74457358  0.03362281    -0.00600
C465        C  0.08753802  0.71877735  0.05860567    -0.05800
H466        H  0.08403007  0.78299119  0.10967680     0.06700
H467        H  0.11312406  0.73302548  0.01204899     0.10100
Br468      Br  0.11013001  0.74365770  0.15987371    -0.05500
Br469      Br  0.94518576  0.60297354  0.10366603    -0.02400
Br470      Br  0.13251088  0.85250154  0.07013827     0.00400
Br471      Br  0.07448946  0.66550140  0.05407672    -0.04000
C472        C  0.12488773  0.78001019  0.42768825    -0.11400
C473        C  0.11794124  0.78901469  0.39578244     0.04100
C474        C  0.09759257  0.75925847  0.37396436    -0.11900
C475        C  0.08456736  0.72042532  0.38328194     0.19000
C476        C  0.09568076  0.71190835  0.41367862    -0.08900
C477        C  0.11493161  0.74142549  0.43569266    -0.01900
H478        H  0.09062474  0.76632149  0.35006480     0.05500
C479        C  0.05848171  0.68924158  0.36153079     0.20900
H480        H  0.12050004  0.73358595  0.45977302     0.10700
C481        C  0.07189342  0.68607694  0.33140585    -0.15300
C482        C  0.04795139  0.65719801  0.31016676     0.03700
C483        C  0.00991829  0.63044302  0.31918378    -0.10600
C484        C  0.99640297  0.63357345  0.34927282    -0.00600
C485        C  0.02007117  0.66321387  0.37013667    -0.05800
H486        H  0.10120068  0.70607294  0.32446409     0.06700
H487        H  0.96710918  0.61350404  0.35620417     0.10100
Br488      Br  0.08477611  0.66037954  0.42629232    -0.05500
Br489      Br  0.13479490  0.84135842  0.38134409    -0.02400
Br490      Br  0.06939485  0.65489187  0.26970819     0.00400
Br491      Br  0.99789610  0.66830923  0.40916428    -0.04000
C492        C  0.61287490  0.26469858  0.04432833    -0.11400
C493        C  0.58378727  0.26279952  0.06465279     0.04100
C494        C  0.57441429  0.24010176  0.09313129    -0.11900
C495        C  0.59415112  0.21996675  0.10247130     0.19000
C496        C  0.62515452  0.22442700  0.08380749    -0.08900
C497        C  0.63397734  0.24621049  0.05496265    -0.01900
H498        H  0.55075088  0.23719689  0.10759663     0.05500
C499        C  0.57836673  0.19029008  0.12875506     0.20900
H500        H  0.65664084  0.24738884  0.04015643     0.10700
C501        C  0.56195275  0.15135125  0.12042507    -0.15300
C502        C  0.54138041  0.12173852  0.14296779     0.03700
C503        C  0.53745759  0.13082635  0.17487810    -0.10600
C504        C  0.55485999  0.16986008  0.18352277    -0.00600
C505        C  0.57526946  0.19955572  0.16073120    -0.05800
H506        H  0.56321666  0.14398363  0.09563636     0.06700
H507        H  0.55146122  0.17727705  0.20775402     0.10100
Br508      Br  0.65564075  0.20046792  0.09636034    -0.05500
Br509      Br  0.55698712  0.29175913  0.05634868    -0.02400
Br510      Br  0.51435100  0.07008045  0.12705435     0.00400
Br511      Br  0.59766369  0.25222965  0.17395946    -0.04000
C512        C  0.54203206  0.11296772  0.31566076    -0.11400
C513        C  0.55265143  0.15259351  0.31213735     0.04100
C514        C  0.58115484  0.17976495  0.33209420    -0.11900
C515        C  0.60254975  0.16947377  0.35389410     0.19000
C516        C  0.59559058  0.13069368  0.35393391    -0.08900
C517        C  0.56460541  0.10268069  0.33602213    -0.01900
H518        H  0.58493357  0.20879809  0.33163562     0.05500
C519        C  0.62536347  0.19717043  0.38007992     0.20900
H520        H  0.55822794  0.07273644  0.33790208     0.10700
C521        C  0.61913531  0.18326922  0.41225505    -0.15300
C522        C  0.62915857  0.20822390  0.43817170     0.03700
C523        C  0.64313278  0.24829084  0.43245606    -0.10600
C524        C  0.65285129  0.26273162  0.40055501    -0.00600
C525        C  0.64592854  0.23782817  0.37473940    -0.05800
H526        H  0.60285665  0.15253734  0.41752424     0.06700
H527        H  0.66313139  0.29311193  0.39516981     0.10100
Br528      Br  0.62793123  0.11443762  0.37720243    -0.05500
Br529      Br  0.52826438  0.17211582  0.28227701    -0.02400
Br530      Br  0.61547228  0.18412313  0.48024483     0.00400
Br531      Br  0.66384350  0.26108635  0.33273650    -0.04000
C532        C  0.39121269  0.08108025  0.16294744    -0.11400
C533        C  0.39077421  0.11544168  0.17094713     0.04100
C534        C  0.38086851  0.13544867  0.14748755    -0.11900
C535        C  0.37048003  0.12153940  0.11616080     0.19000
C536        C  0.36799161  0.08578274  0.10880672    -0.08900
C537        C  0.37874538  0.06613339  0.13199552    -0.01900
H538        H  0.38307563  0.16301981  0.15327863     0.05500
C539        C  0.36694902  0.14668790  0.09053556     0.20900
H540        H  0.37849249  0.03964280  0.12550993     0.10700
C541        C  0.39396399  0.16067798  0.06572637    -0.15300
C542        C  0.39047425  0.18164306  0.03923551     0.03700
C543        C  0.35854018  0.18868986  0.03710934    -0.10600
C544        C  0.33379841  0.17783811  0.06383584    -0.00600
C545        C  0.33781919  0.15714732  0.09038879    -0.05800
H546        H  0.41758439  0.15424952  0.06662831     0.06700
H547        H  0.30993388  0.18386086  0.06336179     0.10100
Br548      Br  0.35083127  0.06307982  0.06720480    -0.05500
Br549      Br  0.40712554  0.13943700  0.21194835    -0.02400
Br550      Br  0.43974191  0.20014033  0.51095579     0.00400
Br551      Br  0.30121814  0.14149236  0.12463361    -0.04000
C552        C  0.41187413  0.11098714  0.30447796    -0.11400
C553        C  0.38161203  0.08977676  0.32632016     0.04100
C554        C  0.37013703  0.10924652  0.34722541    -0.11900
C555        C  0.38896165  0.14983517  0.34787673     0.19000
C556        C  0.41817658  0.17108118  0.32533585    -0.08900
C557        C  0.42865799  0.15162763  0.30355855    -0.01900
H558        H  0.34745333  0.09250248  0.36435290     0.05500
C559        C  0.38153979  0.16811477  0.37557731     0.20900
H560        H  0.45164563  0.16877446  0.28687211     0.10700
C561        C  0.38531282  0.15503166  0.40662289    -0.15300
C562        C  0.37450044  0.16700191  0.43381397     0.03700
C563        C  0.36471582  0.19690639  0.43102413    -0.10600
C564        C  0.35901684  0.20875630  0.39991201    -0.00600
C565        C  0.36671599  0.19411548  0.37221035    -0.05800
H566        H  0.39382062  0.13283295  0.40953862     0.06700
H567        H  0.34724171  0.22833388  0.39716284     0.10100
Br568      Br  0.44776692  0.22637063  0.32493919    -0.05500
Br569      Br  0.35463087  0.03458635  0.32983643    -0.02400
Br570      Br  0.36366586  0.13384291  0.47151979     0.00400
Br571      Br  0.35222722  0.20686538  0.33092833    -0.04000
C572        C  0.20780197  0.81165878  0.03961795    -0.11400
C573        C  0.20923503  0.79985781  0.07195878     0.04100
C574        C  0.23226459  0.82723880  0.09479974    -0.11900
C575        C  0.25447499  0.86640951  0.08576114     0.19000
C576        C  0.25104500  0.87860866  0.05415794    -0.08900
C577        C  0.22750328  0.85142113  0.03152255    -0.01900
H578        H  0.23478940  0.81760760  0.11910893     0.05500
C579        C  0.28542709  0.89284297  0.10764041     0.20900
H580        H  0.22748219  0.86112551  0.00686383     0.10700
C581        C  0.32202826  0.89635301  0.10478655    -0.15300
C582        C  0.35249437  0.92074457  0.12479632     0.03700
C583        C  0.34664159  0.94266060  0.14823747    -0.10600
C584        C  0.30979748  0.93910916  0.15090866    -0.00600
C585        C  0.27934442  0.91446316  0.13083689    -0.05800
H586        H  0.32674979  0.87947385  0.08710208     0.06700
H587        H  0.30455218  0.95530377  0.16889107     0.10100
Br588      Br  0.28130496  0.93157596  0.04000023    -0.05500
Br589      Br  0.18281954  0.74642544  0.08543405    -0.02400
Br590      Br  0.40007817  0.91982929  0.12028319     0.00400
Br591      Br  0.22988434  0.91076718  0.13599386    -0.04000
C592        C  0.34465922  0.94519763  0.31840504    -0.11400
C593        C  0.30518454  0.93175067  0.31111510     0.04100
C594        C  0.27691383  0.90496397  0.33193901    -0.11900
C595        C  0.28706314  0.89136240  0.36009743     0.19000
C596        C  0.32612065  0.90517454  0.36782433    -0.08900
C597        C  0.35447229  0.93178906  0.34710472    -0.01900
H598        H  0.24684405  0.89497073  0.32633622     0.05500
C599        C  0.25692121  0.86432312  0.38232013     0.20900
H600        H  0.38433784  0.94135133  0.35322270     0.10700
C601        C  0.24214680  0.82430813  0.37943672    -0.15300
C602        C  0.21954967  0.79863920  0.40401706     0.03700
C603        C  0.21205614  0.81317942  0.43204739    -0.10600
C604        C  0.22391318  0.85291908  0.43320129    -0.00600
C605        C  0.24606291  0.87839988  0.40857654    -0.05800
H606        H  0.24980565  0.81324227  0.35886143     0.06700
H607        H  0.21848206  0.86477521  0.45441743     0.10100
Br608      Br  0.34199971  0.88834640  0.40650137    -0.05500
Br609      Br  0.28735501  0.94955483  0.27412656    -0.02400
Br610      Br  0.20100168  0.74431800  0.39903577     0.00400
Br611      Br  0.26393831  0.93266224  0.41318322    -0.04000
C612        C  0.47274039  0.92781848  0.18541477    -0.11400
C613        C  0.50541880  0.94255960  0.16520555     0.04100
C614        C  0.51398268  0.91717864  0.14918531    -0.11900
C615        C  0.49136685  0.87702062  0.15295959     0.19000
C616        C  0.46115337  0.86213218  0.17532718    -0.08900
C617        C  0.45176569  0.88743460  0.19106565    -0.01900
H618        H  0.53754626  0.92896107  0.13220241     0.05500
C619        C  0.49769548  0.85281911  0.12973403     0.20900
H620        H  0.42738165  0.87537123  0.20716090     0.10700
C621        C  0.53418677  0.85534100  0.12890042    -0.15300
C622        C  0.54854843  0.85028712  0.09988334     0.03700
C623        C  0.52632280  0.84264194  0.07136283    -0.10600
C624        C  0.48750015  0.83289548  0.07378380    -0.00600
C625        C  0.47321463  0.83855214  0.10250314    -0.05800
H626        H  0.55331645  0.86612228  0.14962609     0.06700
H627        H  0.47026657  0.82782809  0.05198863     0.10100
Br628      Br  0.43202514  0.80767632  0.18467388    -0.05500
Br629      Br  0.53868069  0.99653916  0.15563802    -0.02400
Br630      Br  0.60121934  0.86192187  0.09847300     0.00400
Br631      Br  0.42339494  0.83524040  0.10050192    -0.04000
C632        C  0.52490189  0.86920215  0.44067340    -0.11400
C633        C  0.52922222  0.90612242  0.43240420     0.04100
C634        C  0.51673704  0.91272707  0.40230690    -0.11900
C635        C  0.49960293  0.88341585  0.37966421     0.19000
C636        C  0.49506866  0.84642641  0.38761673    -0.08900
C637        C  0.50846796  0.84002307  0.41767403    -0.01900
H638        H  0.52022827  0.94124333  0.39651660     0.05500
C639        C  0.48829953  0.89408733  0.34814299     0.20900
H640        H  0.50546468  0.81173237  0.42334452     0.10700
C641        C  0.51723706  0.92436416  0.32980202    -0.15300
C642        C  0.50836074  0.94521637  0.30626723     0.03700
C643        C  0.46965042  0.93504194  0.29997723    -0.10600
C644        C  0.44066004  0.90206163  0.31603757    -0.00600
C645        C  0.44957048  0.88215428  0.34032219    -0.05800
H646        H  0.54714689  0.93388103  0.33571580     0.06700
H647        H  0.41062028  0.89345000  0.31170601     0.10100
Br648      Br  0.47144348  0.80408812  0.35857676    -0.05500
Br649      Br  0.55087262  0.94902069  0.46106683    -0.02400
Br650      Br  0.55044599  0.98821388  0.28499933     0.00400
Br651      Br  0.40766048  0.84286292  0.36485798    -0.04000
N652        N  0.51299466  0.83788233  0.49679039    -0.02900
C653        C  0.53283579  0.84835955  0.52511657    -0.00300
C654        C  0.57010630  0.87721907  0.51917887    -0.23200
C655        C  0.55186676  0.91016450  0.00734756    -0.23400
C656        C  0.53750669  0.87601746  0.99115366    -0.00400
H657        H  0.59151527  0.89436222  0.53699449     0.13400
H658        H  0.55512351  0.93747059  0.99791481     0.13400
N659        N  0.17968103  0.78862969  0.98447547    -0.02900
C660        C  0.19863287  0.79441115  0.51512521    -0.00300
C661        C  0.22279948  0.77930981  0.50916545    -0.23200
C662        C  0.21980867  0.76619623  0.97324915    -0.23400
C663        C  0.19797675  0.78201233  0.96011889    -0.00400
H664        H  0.24325637  0.77772206  0.52605257     0.13400
H665        H  0.24114370  0.76208555  0.96080093     0.13400
O666        O  0.48246820  0.00024159  0.78362343    -0.79500
O667        O  0.51370645  0.06424739  0.70386612    -0.79600
O668        O  0.42344302  0.93690770  0.71176330    -0.79600
O669        O  0.50525665  0.08502800  0.77542698    -0.79500
O670        O  0.48146395  0.98492534  0.70200732    -0.79600
O671        O  0.48102395  0.05503098  0.82182509    -0.79600
O672        O  0.49397291  0.10516978  0.71354434    -0.79500
O673        O  0.42802418  0.94610998  0.77666486    -0.79600
C674        C  0.46232304  0.96397441  0.78815949     1.10200
C675        C  0.51776469  0.09778437  0.70019498     1.10000
C676        C  0.45791815  0.94904490  0.70282778     1.10200
C677        C  0.50825075  0.08267310  0.80652491     1.10100
O678        O  0.42290350  0.05959214  0.78869130    -0.79500
O679        O  0.41463542  0.98070213  0.66913690    -0.79600
O680        O  0.37222084  0.97529186  0.77013620    -0.79600
O681        O  0.41392868  0.06452505  0.71750205    -0.79500
O682        O  0.44302122  0.05819357  0.67472676    -0.79600
O683        O  0.41240630  0.98891270  0.80975419    -0.79600
O684        O  0.45823566  0.11519179  0.76382584    -0.79500
O685        O  0.37093095  0.96831539  0.70553048    -0.79600
Co686      Co  0.45498776  0.03048242  0.78301306     1.51500
Co687      Co  0.46292655  0.02196924  0.69052564     1.51700
Co688      Co  0.40047719  0.96011615  0.74091049     1.51600
Co689      Co  0.45628024  0.07056514  0.74665937     1.51500
O690        O  0.44221675  0.01583372  0.73615525    -1.41500
C691        C  0.43232095  0.09563595  0.78403803     1.10100
C692        C  0.37959339  0.96786445  0.67646328     1.10200
C693        C  0.37792758  0.97216995  0.79970458     1.10100
C694        C  0.42030555  0.06836324  0.68734147     1.10100
N695        N  0.36835761  0.22138779  0.98137659    -0.02900
C696        C  0.34652828  0.20882814  0.95387863    -0.00300
C697        C  0.30863553  0.18501646  0.96246988    -0.23200
C698        C  0.30808440  0.17924741  0.99541939    -0.23400
C699        C  0.34561177  0.20025876  0.00640102    -0.00400
H700        H  0.28534267  0.16730764  0.94622389     0.13400
H701        H  0.29484203  0.16342736  0.51888914     0.13400
N702        N  0.65034672  0.28822155  0.99284717    -0.02900
C703        C  0.63662302  0.28036130  0.96169476    -0.00300
C704        C  0.60084344  0.27816525  0.95958285    -0.23200
C705        C  0.58298422  0.25544210  0.48620219    -0.23400
C706        C  0.61547855  0.26625688  0.50516845    -0.00400
H707        H  0.58151017  0.26823807  0.93891421     0.13400
H708        H  0.55338483  0.24036425  0.49394784     0.13400
O709        O  0.96443733  0.56245916  0.80232459    -0.79500
O710        O  0.89151933  0.52542347  0.66828742    -0.79600
O711        O  0.97357437  0.60588823  0.69799196    -0.79600
O712        O  0.83593205  0.50103731  0.75736579    -0.79500
O713        O  0.96841529  0.56546250  0.66071060    -0.79600
O714        O  0.88812899  0.53583222  0.78621548    -0.79600
O715        O  0.88266658  0.55233665  0.71084208    -0.79500
O716        O  0.97176068  0.60388420  0.76376516    -0.79600
C717        C  0.97670977  0.59727424  0.79297357     1.10200
C718        C  0.87881042  0.54631411  0.68062635     1.10000
C719        C  0.97718205  0.59946372  0.66901467     1.10200
C720        C  0.85114890  0.52117100  0.78184934     1.10100
O721        O  0.90966614  0.48757808  0.81482433    -0.79500
O722        O  0.97817638  0.50412573  0.69081961    -0.79600
O723        O  0.01357212  0.56019735  0.76528387    -0.79600
O724        O  0.85315675  0.47186596  0.70792780    -0.79500
O725        O  0.89863890  0.45917314  0.69613666    -0.79600
O726        O  0.96818451  0.49987853  0.77409942    -0.79600
O727        O  0.87630410  0.46393254  0.76981321    -0.79500
O728        O  0.01826168  0.56545258  0.69972142    -0.79600
Co729      Co  0.92827605  0.51635117  0.77604414     1.51500
Co730      Co  0.93421225  0.51366796  0.68245645     1.51700
Co731      Co  0.99073947  0.58139952  0.73161971     1.51600
Co732      Co  0.88353266  0.51190393  0.74025101     1.51500
O733        O  0.93885211  0.53282672  0.72885525    -1.41500
C734        C  0.88133172  0.46027973  0.80065599     1.10100
C735        C  0.01152881  0.53309886  0.68839104     1.10200
C736        C  0.00290374  0.52631886  0.77715935     1.10100
C737        C  0.86356570  0.45005554  0.69492848     1.10100
N738        N  0.17794512  0.51489438  0.48862875    -0.02900
C739        C  0.18523613  0.53840817  0.51428996    -0.00300
C740        C  0.20023503  0.57623571  0.50296307    -0.23200
C741        C  0.19395256  0.57975246  0.96470776    -0.23400
C742        C  0.17920446  0.54136500  0.95702196    -0.00400
H743        H  0.20485976  0.60080751  0.51699357     0.13400
H744        H  0.19584090  0.60282616  0.94867889     0.13400
N745        N  0.68129470  0.31424218  0.49370082    -0.02900
C746        C  0.68578748  0.33243531  0.52251382    -0.00300
C747        C  0.69828806  0.37143717  0.51718004    -0.23200
C748        C  0.71739569  0.38644479  0.99172740    -0.23400
C749        C  0.70461683  0.35087378  0.97797690    -0.00400
H750        H  0.70789368  0.39343346  0.53533326     0.13400
H751        H  0.73473952  0.41462685  0.98040575     0.13400
N752        N  0.73392243  0.59472062  0.98564846    -0.02900
C753        C  0.76577126  0.63392407  0.50465399    -0.00300
C754        C  0.80215753  0.65578120  0.49188787    -0.23200
C755        C  0.79171679  0.60850382  0.96479140    -0.23400
C756        C  0.75321173  0.59526635  0.95843240    -0.00400
H757        H  0.82907764  0.66983989  0.50516642     0.13400
H758        H  0.81284326  0.60915584  0.94837304     0.13400
N759        N  0.15094552  0.80023630  0.98097749    -0.02900
C760        C  0.13384555  0.80336546  0.95290363    -0.00300
C761        C  0.11162726  0.82054206  0.95939341    -0.23200
C762        C  0.10640574  0.82237976  0.49311197    -0.23400
C763        C  0.13072115  0.80981312  0.50676695    -0.00400
H764        H  0.09116649  0.82299198  0.94308609     0.13400
H765        H  0.08317100  0.82365531  0.50511920     0.13400
O766        O  0.41166266  0.47796951  0.65355406    -0.79500
O767        O  0.35838142  0.48018559  0.77697090    -0.79600
O768        O  0.45543227  0.45345340  0.75640352    -0.79600
O769        O  0.37441125  0.54176135  0.70720480    -0.79500
O770        O  0.39692461  0.43854129  0.76734465    -0.79600
O771        O  0.36491241  0.48285501  0.69886752    -0.79600
O772        O  0.37588464  0.54207892  0.77272546    -0.79500
O773        O  0.42433914  0.45064792  0.69591713    -0.79600
C774        C  0.41315817  0.44910740  0.66595449     1.10200
C775        C  0.35171594  0.50788683  0.78196492     1.10000
C776        C  0.42349532  0.42980009  0.76874429     1.10200
C777        C  0.35273800  0.50734371  0.69766758     1.10100
O778        O  0.42547253  0.54922715  0.66888234    -0.79500
O779        O  0.46576721  0.50212840  0.79762873    -0.79600
O780        O  0.50132825  0.49081101  0.70567792    -0.79600
O781        O  0.45840127  0.58592678  0.77387042    -0.79500
O782        O  0.42556623  0.53834363  0.80871467    -0.79600
O783        O  0.47995169  0.52747544  0.68150457    -0.79600
O784        O  0.45830495  0.59096599  0.70569013    -0.79500
O785        O  0.50085989  0.53488133  0.75538415    -0.79600
Co786      Co  0.42077962  0.50276936  0.69346921     1.51500
Co787      Co  0.41163233  0.49015312  0.78453540     1.51700
Co788      Co  0.46237685  0.49661542  0.72575701     1.51600
Co789      Co  0.41837857  0.56285751  0.73962323     1.51500
O790        O  0.42662360  0.51568266  0.74002222    -1.41500
C791        C  0.44872141  0.58368475  0.67622127     1.10100
C792        C  0.49826025  0.52627978  0.78542968     1.10200
C793        C  0.50555720  0.51595661  0.68413289     1.10100
C794        C  0.44981260  0.57359740  0.80286227     1.10100
N795        N  0.40419830  0.25602964  0.98453130    -0.02900
C796        C  0.43324044  0.27791252  0.51372665    -0.00300
C797        C  0.45920799  0.30059008  0.00707222    -0.23200
C798        C  0.46463639  0.30185193  0.97435438    -0.23400
C799        C  0.42999709  0.27547584  0.96068925    -0.00400
H800        H  0.49239266  0.32509503  0.52147109     0.13400
H801        H  0.48915155  0.32425266  0.96155591     0.13400
N802        N  0.16885610  0.48090805  0.98605094    -0.02900
C803        C  0.16370800  0.45814407  0.96020826    -0.00300
C804        C  0.14913059  0.42017962  0.97110681    -0.23200
C805        C  0.14823818  0.42017948  0.00428342    -0.23400
C806        C  0.16719139  0.45397879  0.51759553    -0.00400
H807        H  0.14607402  0.39611367  0.95718523     0.13400
H808        H  0.15085955  0.39258957  0.52554875     0.13400
N809        N  0.70123175  0.60085489  0.98571784    -0.02900
C810        C  0.69430986  0.62082095  0.96093704    -0.00300
C811        C  0.68348509  0.64626427  0.97324427    -0.23200
C812        C  0.68129544  0.64076061  0.00586349    -0.23400
C813        C  0.68894371  0.62483863  0.50539714    -0.00400
H814        H  0.67197313  0.66240095  0.95980197     0.13400
H815        H  0.65446712  0.65444447  0.50968249     0.13400
N816        N  0.52323379  0.78048532  0.99928514    -0.02900
C817        C  0.53763388  0.77000181  0.97431648    -0.00300
C818        C  0.57088201  0.80042615  0.96234607    -0.23200
C819        C  0.57704963  0.83175087  0.97959755    -0.23400
C820        C  0.54651772  0.81950680  0.00061746    -0.00400
H821        H  0.58744227  0.80024653  0.94202984     0.13400
H822        H  0.59934535  0.86122329  0.97517496     0.13400
C823        C  0.18668856  0.47129538  0.92969115    -0.11400
C824        C  0.17268308  0.45129912  0.90048827     0.04100
C825        C  0.19773206  0.45847858  0.87464917    -0.11900
C826        C  0.23706258  0.48513394  0.87734543     0.19000
C827        C  0.25068678  0.50663995  0.90572362    -0.08900
C828        C  0.22539418  0.50034615  0.93105139    -0.01900
H829        H  0.18665802  0.44248704  0.85261131     0.05500
C830        C  0.26363126  0.48958431  0.85079804     0.20900
H831        H  0.23656876  0.51755591  0.95234918     0.10700
C832        C  0.28178083  0.52447573  0.83289776    -0.15300
C833        C  0.30928251  0.53078963  0.80943917     0.03700
C834        C  0.31879107  0.50130497  0.80296305    -0.10600
C835        C  0.29916777  0.46577510  0.82020501    -0.00600
C836        C  0.27230386  0.45996974  0.84404728    -0.05800
H837        H  0.27519585  0.54740169  0.83784718     0.06700
H838        H  0.30600445  0.44280234  0.81633814     0.10100
Br839      Br  0.30410274  0.54307329  0.91206003    -0.05500
Br840      Br  0.11943656  0.41452489  0.89435078    -0.02400
Br841      Br  0.33293900  0.58097445  0.78838253     0.00400
Br842      Br  0.25067712  0.41221791  0.86870055    -0.04000
C843        C  0.18903551  0.46782164  0.54866703    -0.11400
C844        C  0.22971274  0.48829241  0.54958260     0.04100
C845        C  0.24958204  0.49375485  0.57891639    -0.11900
C846        C  0.23012652  0.47869832  0.60796766     0.19000
C847        C  0.18967569  0.45911827  0.60768778    -0.08900
C848        C  0.16946222  0.45354972  0.57817792    -0.01900
H849        H  0.28075054  0.50853100  0.57892264     0.05500
C850        C  0.25362540  0.48170624  0.63724689     0.20900
H851        H  0.13836192  0.43702900  0.57812161     0.10700
C852        C  0.27162302  0.51659658  0.65370385    -0.15300
C853        C  0.30178100  0.52449636  0.67574239     0.03700
C854        C  0.31529541  0.49732778  0.68101503    -0.10600
C855        C  0.29474734  0.46104611  0.66640975    -0.00600
C856        C  0.26434246  0.45321259  0.64474486    -0.05800
H857        H  0.26342716  0.53863875  0.64813969     0.06700
H858        H  0.30367135  0.43928949  0.67029431     0.10100
Br859      Br  0.16131489  0.43836247  0.64679595    -0.05500
Br860      Br  0.26103794  0.50595740  0.51208242    -0.02400
Br861      Br  0.32355927  0.57377549  0.69616324     0.00400
Br862      Br  0.24050257  0.40443033  0.62361577    -0.04000
C863        C  0.51792740  0.73256818  0.95815923    -0.11400
C864        C  0.48605287  0.72410224  0.93784132     0.04100
C865        C  0.47394202  0.69432044  0.91575158    -0.11900
C866        C  0.49336051  0.67286067  0.91344139     0.19000
C867        C  0.52383037  0.67980177  0.93504901    -0.08900
C868        C  0.53600160  0.70966977  0.95716316    -0.01900
H869        H  0.45069267  0.68934144  0.89901265     0.05500
C870        C  0.48444147  0.64706105  0.88578590     0.20900
H871        H  0.56102500  0.71653000  0.97228553     0.10700
C872        C  0.49693642  0.66364113  0.85492246    -0.15300
C873        C  0.48736828  0.64073272  0.82751563     0.03700
C874        C  0.46482910  0.59999765  0.83083882    -0.10600
C875        C  0.45335342  0.58367064  0.86224112    -0.00600
C876        C  0.46255010  0.60675567  0.88938760    -0.05800
H877        H  0.51374280  0.69481876  0.85209797     0.06700
H878        H  0.43601062  0.55266870  0.86583580     0.10100
Br879      Br  0.55185696  0.65176043  0.93310472    -0.05500
Br880      Br  0.46182264  0.75600701  0.93599260    -0.02400
Br881      Br  0.50511011  0.66776607  0.78675849     0.00400
Br882      Br  0.44269812  0.58217803  0.93058284    -0.04000
C883        C  0.46162621  0.61509903  0.65068402    -0.11400
C884        C  0.46131844  0.60734992  0.61743679     0.04100
C885        C  0.46819450  0.63610523  0.59377775    -0.11900
C886        C  0.47678960  0.67356157  0.60214339     0.19000
C887        C  0.47876333  0.68200446  0.63528104    -0.08900
C888        C  0.47126158  0.65299813  0.65911531    -0.01900
H889        H  0.46634299  0.62896733  0.56849534     0.05500
C890        C  0.48071174  0.70215596  0.57586670     0.20900
H891        H  0.47187888  0.65990557  0.68431902     0.10700
C892        C  0.45443620  0.71632836  0.57443393    -0.15300
C893        C  0.47444964  0.73867604  0.04051654     0.03700
C894        C  0.48049612  0.74974978  0.52288565    -0.10600
C895        C  0.50726394  0.73620704  0.52444642    -0.00600
C896        C  0.50761560  0.71268162  0.55061651    -0.05800
H897        H  0.43288894  0.70774316  0.59302970     0.06700
H898        H  0.52709689  0.74296355  0.50470895     0.10100
Br899      Br  0.49181778  0.73281609  0.64919865    -0.05500
Br900      Br  0.45328156  0.55873194  0.60217568    -0.02400
Br901      Br  0.43707755  0.75133095  0.02245825     0.00400
Br902      Br  0.54510802  0.69531348  0.55056256    -0.04000
C903        C  0.68007542  0.60602554  0.92778854    -0.11400
C904        C  0.68219231  0.63161870  0.90212839     0.04100
C905        C  0.65604652  0.61804157  0.87614544    -0.11900
C906        C  0.62827839  0.57888823  0.87469965     0.19000
C907        C  0.63023564  0.55252889  0.89746581    -0.08900
C908        C  0.65584974  0.56620118  0.92377279    -0.01900
H909        H  0.65605327  0.63844836  0.85798259     0.05500
C910        C  0.59555018  0.56672633  0.85143663     0.20900
H911        H  0.65532656  0.54573889  0.94194336     0.10700
C912        C  0.60158376  0.56731748  0.81809740    -0.15300
C913        C  0.57082337  0.55529675  0.79585580     0.03700
C914        C  0.53296068  0.54247066  0.80697753    -0.10600
C915        C  0.52751888  0.54327384  0.84036954    -0.00600
C916        C  0.55819792  0.55539567  0.86237846    -0.05800
H917        H  0.63028771  0.57651344  0.80938621     0.06700
H918        H  0.49907953  0.53439511  0.84957079     0.10100
Br919      Br  0.59700325  0.49780212  0.89446467    -0.05500
Br920      Br  0.71919926  0.68571564  0.90216235    -0.02400
Br921      Br  0.58271746  0.55531583  0.75114079     0.00400
Br922      Br  0.54758703  0.55684009  0.90720148    -0.04000
C923        C  0.67752684  0.60474561  0.53737120    -0.11400
C924        C  0.64606933  0.56694544  0.53952231     0.04100
C925        C  0.62406090  0.55421543  0.56762730    -0.11900
C926        C  0.63260696  0.57848044  0.59404898     0.19000
C927        C  0.66650432  0.61453417  0.59343315    -0.08900
C928        C  0.68830616  0.62759403  0.56506749    -0.01900
H929        H  0.59842193  0.52614301  0.56797521     0.05500
C930        C  0.60383403  0.56612110  0.62034913     0.20900
H931        H  0.71069658  0.63393842  0.07430389     0.10700
C932        C  0.59458864  0.53182974  0.63788036    -0.15300
C933        C  0.56320874  0.51515015  0.65886771     0.03700
C934        C  0.54021786  0.53316748  0.66306934    -0.10600
C935        C  0.55012751  0.56805504  0.64592600    -0.00600
C936        C  0.58123688  0.58432315  0.62457428    -0.05800
H937        H  0.61104978  0.51702581  0.63415788     0.06700
H938        H  0.53302216  0.58239087  0.64847493     0.10100
Br939      Br  0.68314310  0.64746155  0.63008437    -0.05500
Br940      Br  0.62755341  0.53360841  0.50329621    -0.02400
Br941      Br  0.55213838  0.46605402  0.67841251     0.00400
Br942      Br  0.58921282  0.62945010  0.59965511    -0.04000
C943        C  0.42064410  0.39781244  0.79047046    -0.11400
C944        C  0.38552443  0.36427290  0.79763435     0.04100
C945        C  0.38404842  0.33843025  0.82248443    -0.11900
C946        C  0.41690879  0.34593528  0.84111392     0.19000
C947        C  0.45214563  0.37881894  0.83320025    -0.08900
C948        C  0.45382010  0.40383606  0.80786759    -0.01900
H949        H  0.35688830  0.31299756  0.82798513     0.05500
C950        C  0.41402644  0.32098654  0.86986402     0.20900
H951        H  0.48097381  0.42968082  0.80324904     0.10700
C952        C  0.43709203  0.30295336  0.87177519    -0.15300
C953        C  0.44084915  0.28570952  0.90080868     0.03700
C954        C  0.41993950  0.28461585  0.92813513    -0.10600
C955        C  0.39491662  0.30031678  0.92566838    -0.00600
C956        C  0.39203196  0.31864897  0.89698980    -0.05800
H957        H  0.45407576  0.30444013  0.85116436     0.06700
H958        H  0.37955478  0.30068114  0.94682933     0.10100
Br959      Br  0.49829791  0.39360815  0.85828033    -0.05500
Br960      Br  0.33886275  0.35236829  0.77443191    -0.02400
Br961      Br  0.47636969  0.26582709  0.90299057     0.00400
Br962      Br  0.36119191  0.34391570  0.89764634    -0.04000
C963        C  0.41512466  0.28475709  0.54201767    -0.11400
C964        C  0.43293854  0.29203995  0.57279581     0.04100
C965        C  0.42283598  0.31047272  0.59593692    -0.11900
C966        C  0.39370123  0.32028739  0.58963458     0.19000
C967        C  0.37224657  0.30790994  0.56056103    -0.08900
C968        C  0.38356954  0.29112957  0.53682834    -0.01900
H969        H  0.43960741  0.31939708  0.61808336     0.05500
C970        C  0.39185392  0.34979477  0.60998267     0.20900
H971        H  0.36905022  0.28523530  0.51353947     0.10700
C972        C  0.39651327  0.38389132  0.59459470    -0.15300
C973        C  0.40076116  0.41531065  0.61209743     0.03700
C974        C  0.40250586  0.41416171  0.64638702    -0.10600
C975        C  0.39652855  0.37941106  0.66193286    -0.00600
C976        C  0.39069527  0.34727641  0.64409312    -0.05800
H977        H  0.39826212  0.38674670  0.56846110     0.06700
H978        H  0.39675814  0.37725706  0.68810439     0.10100
Br979      Br  0.32848064  0.31504095  0.55131849    -0.05500
Br980      Br  0.47210504  0.27863711  0.58418103    -0.02400
Br981      Br  0.40566980  0.45873254  0.58633471     0.00400
Br982      Br  0.38063880  0.30052845  0.66736931    -0.04000
C983        C  0.85695561  0.56069392  0.65914678    -0.11400
C984        C  0.83715963  0.57976597  0.67048693     0.04100
C985        C  0.81525454  0.58987092  0.64888416    -0.11900
C986        C  0.81246097  0.58169412  0.61580741     0.19000
C987        C  0.83352396  0.56437525  0.60428282    -0.08900
C988        C  0.85460693  0.55351364  0.62577516    -0.01900
H989        H  0.80017465  0.60417376  0.65801148     0.05500
C990        C  0.79004942  0.59380567  0.59310368     0.20900
H991        H  0.86951325  0.53941101  0.61598882     0.10700
C992        C  0.80108364  0.63322667  0.58907625    -0.15300
C993        C  0.78714875  0.64640865  0.56282518     0.03700
C994        C  0.76325252  0.62028804  0.53909903    -0.10600
C995        C  0.74736676  0.58050332  0.54612898    -0.00600
C996        C  0.76010384  0.56717264  0.57319444    -0.05800
H997        H  0.82239368  0.65410032  0.60516719     0.06700
H998        H  0.72733283  0.55975769  0.52932587     0.10100
Br999      Br  0.83687361  0.55716902  0.55897359    -0.05500
Br1000     Br  0.83813138  0.59298853  0.71488427    -0.02400
Br1001     Br  0.80414284  0.70088351  0.55866366     0.00400
Br1002     Br  0.73699677  0.51241720  0.58129553    -0.04000
C1003       C  0.82671638  0.52718138  0.80535556    -0.11400
C1004       C  0.78752810  0.51659172  0.79893826     0.04100
C1005       C  0.76570955  0.52189969  0.82234981    -0.11900
C1006       C  0.78154355  0.53675554  0.85251376     0.19000
C1007       C  0.81979507  0.54579652  0.85956512    -0.08900
C1008       C  0.84205132  0.54131456  0.83607942    -0.01900
H1009       H  0.73630217  0.51492919  0.81682323     0.05500
C1010       C  0.75953836  0.54659355  0.87523606     0.20900
H1011       H  0.87142383  0.54858631  0.84209965     0.10700
C1012       C  0.74052244  0.52165378  0.90149566    -0.15300
C1013       C  0.72908458  0.53514143  0.92779911     0.03700
C1014       C  0.73764901  0.57422144  0.92820728    -0.10600
C1015       C  0.75090032  0.59680804  0.89967213    -0.00600
C1016       C  0.76225419  0.58344632  0.87344400    -0.05800
H1017       H  0.73763973  0.49293085  0.90283291     0.06700
H1018       H  0.75809353  0.62700223  0.89967273     0.10100
Br1019     Br  0.84300009  0.56490516  0.90092717    -0.05500
Br1020     Br  0.76114015  0.49524851  0.75896280    -0.02400
Br1021     Br  0.70945711  0.50198216  0.96541515     0.00400
Br1022     Br  0.78730320  0.61887464  0.83804846    -0.04000
C1023       C  0.83664557  0.42095873  0.67222171    -0.11400
C1024       C  0.82678440  0.38152282  0.67348187     0.04100
C1025       C  0.79887953  0.35568012  0.65182880    -0.11900
C1026       C  0.78143267  0.36909440  0.62848077     0.19000
C1027       C  0.79303306  0.40895599  0.62646974    -0.08900
C1028       C  0.81970904  0.43409920  0.64845294    -0.01900
H1029       H  0.79038426  0.32517067  0.65352356     0.05500
C1030       C  0.75001480  0.34231751  0.60687704     0.20900
H1031       H  0.82746043  0.46443455  0.64677456     0.10700
C1032       C  0.71390109  0.33998589  0.60985810    -0.15300
C1033       C  0.68907474  0.33136101  0.58319921     0.03700
C1034       C  0.69902203  0.32215770  0.55340547    -0.10600
C1035       C  0.73185772  0.31740501  0.55256673    -0.00600
C1036       C  0.75778981  0.32821181  0.57879936    -0.05800
H1037       H  0.70755902  0.35062269  0.63143602     0.06700
H1038       H  0.74037659  0.31084608  0.53005627     0.10100
Br1039     Br  0.77391405  0.43117935  0.59372616    -0.05500
Br1040     Br  0.84900586  0.36172264  0.70531839    -0.02400
Br1041     Br  0.64698574  0.34171214  0.58705880     0.00400
Br1042     Br  0.80613397  0.32954520  0.57309354    -0.04000
C1043       C  0.85340830  0.42619493  0.82026613    -0.11400
C1044       C  0.81486807  0.40203743  0.81020761     0.04100
C1045       C  0.78700837  0.37912223  0.83314146    -0.11900
C1046       C  0.79660407  0.37968816  0.86605941     0.19000
C1047       C  0.83567312  0.39964898  0.87532071    -0.08900
C1048       C  0.86352635  0.42244328  0.85252695    -0.01900
H1049       H  0.75715872  0.36295825  0.82562467     0.05500
C1050       C  0.76578614  0.36505807  0.89072373     0.20900
H1051       H  0.89295809  0.43962796  0.86079294     0.10700
C1052       C  0.76162065  0.33577079  0.91310000    -0.15300
C1053       C  0.73878373  0.32767803  0.94067338     0.03700
C1054       C  0.71868681  0.34838414  0.94564784    -0.10600
C1055       C  0.71989367  0.37473860  0.92143681    -0.00600
C1056       C  0.74348577  0.38361198  0.89452282    -0.05800
H1057       H  0.77817598  0.32092070  0.91018944     0.06700
H1058       H  0.70475681  0.39095931  0.92481437     0.10100
Br1059     Br  0.85240373  0.40074864  0.91941812    -0.05500
Br1060     Br  0.79686652  0.40108008  0.76658764    -0.02400
Br1061     Br  0.73893023  0.29044156  0.97148987     0.00400
Br1062     Br  0.74788448  0.42514756  0.86623819    -0.04000
C1063       C  0.04116489  0.53052867  0.66834059    -0.11400
C1064       C  0.07176959  0.56360631  0.65323733     0.04100
C1065       C  0.09518793  0.55925370  0.63078843    -0.11900
C1066       C  0.08951796  0.52265771  0.62273776     0.19000
C1067       C  0.06074480  0.48982283  0.63902138    -0.08900
C1068       C  0.03670905  0.49387809  0.66121409    -0.01900
H1069       H  0.11747066  0.58478650  0.61871333     0.05500
C1070       C  0.11348538  0.52009015  0.59663258     0.20900
H1071       H  0.01406799  0.46808364  0.67265014     0.10700
C1072       C  0.15368624  0.53884449  0.60038659    -0.15300
C1073       C  0.17766252  0.54303594  0.57445059     0.03700
C1074       C  0.16161370  0.52697398  0.54422988    -0.10600
C1075       C  0.12136976  0.50653471  0.54098561    -0.00600
C1076       C  0.09743429  0.50391341  0.56643597    -0.05800
H1077       H  0.16656185  0.55205332  0.62317747     0.06700
H1078       H  0.10849488  0.49543562  0.51765448     0.10100
Br1079     Br  0.05376338  0.43900112  0.63217713    -0.05500
Br1080     Br  0.08267026  0.61591544  0.65984557    -0.02400
Br1081     Br  0.23216396  0.57287481  0.58100499     0.00400
Br1082     Br  0.04360689  0.48316734  0.55699972    -0.04000
C1083       C  0.03023937  0.52097051  0.79935510    -0.11400
C1084       C  0.02906799  0.48506755  0.80606637     0.04100
C1085       C  0.05389129  0.48238016  0.82976720    -0.11900
C1086       C  0.07987637  0.51501327  0.84717350     0.19000
C1087       C  0.08125044  0.55078003  0.84005436    -0.08900
C1088       C  0.05699758  0.55349490  0.81640560    -0.01900
H1089       H  0.05277482  0.45476001  0.83476049     0.05500
C1090       C  0.10517609  0.51231588  0.87318926     0.20900
H1091       H  0.05818037  0.58129239  0.81229216     0.10700
C1092       C  0.14520031  0.53385517  0.86951290    -0.15300
C1093       C  0.17008024  0.54182047  0.89617751     0.03700
C1094       C  0.15527181  0.52638457  0.92713112    -0.10600
C1095       C  0.11547972  0.50153068  0.93012227    -0.00600
C1096       C  0.09044089  0.49482288  0.90360066    -0.05800
H1097       H  0.15693969  0.54742218  0.84628160     0.06700
H1098       H  0.10347594  0.48979336  0.95371325     0.10100
Br1099     Br  0.11409576  0.59675826  0.86340546    -0.05500
Br1100     Br  0.99536167  0.43941047  0.78292266    -0.02400
Br1101     Br  0.22366382  0.57668321  0.88927462     0.00400
Br1102     Br  0.03618095  0.46560637  0.91105000    -0.04000
C1103       C  0.99795777  0.63276367  0.64648395    -0.11400
C1104       C  0.99192949  0.63023260  0.61272878     0.04100
C1105       C  0.01580886  0.66148518  0.59254139    -0.11900
C1106       C  0.04725980  0.69465704  0.60513825     0.19000
C1107       C  0.05303103  0.69728107  0.63888110    -0.13700
C1108       C  0.02798323  0.66694095  0.65914967    -0.01900
H1109       H  0.01049119  0.65941536  0.56667768     0.05500
C1110       C  0.07376616  0.72567760  0.58258800     0.20900
H1111       H  0.03369577  0.66912591  0.68494975     0.10700
C1112       C  0.08067218  0.76384992  0.58572851    -0.15300
C1113       C  0.10325680  0.79299120  0.56328768     0.03700
C1114       C  0.11762864  0.78377255  0.53601659    -0.10600
C1115       C  0.11196949  0.74590635  0.53387778    -0.00600
C1116       C  0.09118778  0.71732696  0.55704995    -0.05800
H1117       H  0.06782657  0.77092356  0.60539977     0.06700
H1118       H  0.12261752  0.73766041  0.51341947     0.10100
Br1119     Br  0.09674222  0.73962089  0.65857206    -0.05500
Br1120     Br  0.95205076  0.58504837  0.59268717    -0.02400
Br1121     Br  0.11335538  0.84476228  0.57081853     0.00400
Br1122     Br  0.08790760  0.66751616  0.55255403    -0.04000
C1123       C  0.12242856  0.77591525  0.92558673    -0.11400
C1124       C  0.11427646  0.78605942  0.89446467     0.04100
C1125       C  0.09172882  0.75710607  0.87252885    -0.11900
C1126       C  0.07820330  0.71776798  0.88049325     0.19000
C1127       C  0.09121711  0.70822972  0.90964080    -0.08900
C1128       C  0.11197690  0.73690607  0.93221858    -0.01900
H1129       H  0.08392782  0.76531407  0.84947137     0.05500
C1130       C  0.05097791  0.68743449  0.85807969     0.20900
H1131       H  0.11852769  0.72819308  0.95551959     0.10700
C1132       C  0.06153795  0.68839358  0.82581048    -0.15300
C1133       C  0.03709451  0.66025500  0.80407289     0.03700
C1134       C  0.00126299  0.62969867  0.81454667    -0.10600
C1135       C  0.99028509  0.62913594  0.84663611    -0.00600
C1136       C  0.01420667  0.65818558  0.86804721    -0.05800
H1137       H  0.08930062  0.71091915  0.81755648     0.06700
H1138       H  0.96265589  0.60637999  0.85492019     0.10100
Br1139     Br  0.08227456  0.65670856  0.91948970    -0.05500
Br1140     Br  0.13317370  0.83909263  0.88094962    -0.02400
Br1141     Br  0.05569446  0.66398167  0.76095096     0.00400
Br1142     Br  0.99404751  0.65797669  0.90982725    -0.04000
C1143       C  0.61278943  0.25236419  0.53937998    -0.11400
C1144       C  0.58456137  0.25089406  0.56036387     0.04100
C1145       C  0.57657574  0.22930426  0.58935943    -0.11900
C1146       C  0.59640113  0.20907773  0.59823415     0.19000
C1147       C  0.62631886  0.21263402  0.57841239    -0.08900
C1148       C  0.63459477  0.23453886  0.54953461    -0.01900
H1149       H  0.55365406  0.22704705  0.60446799     0.05500
C1150       C  0.58245970  0.18135899  0.62619163     0.20900
H1151       H  0.65689136  0.23590687  0.53414514     0.10700
C1152       C  0.56656378  0.14169833  0.62046825    -0.15300
C1153       C  0.54789165  0.11394823  0.64498951     0.03700
C1154       C  0.54459641  0.12575865  0.67611686    -0.10600
C1155       C  0.56167966  0.16553179  0.68210010    -0.00600
C1156       C  0.58068393  0.19324217  0.65754917    -0.05800
H1157       H  0.56696525  0.13217225  0.59627896     0.06700
H1158       H  0.55908160  0.17508410  0.70570138     0.10100
Br1159     Br  0.65560137  0.18682456  0.58903403    -0.05500
Br1160     Br  0.55630389  0.27818939  0.55106922    -0.02400
Br1161     Br  0.52336139  0.06059928  0.63293344     0.00400
Br1162     Br  0.60307836  0.24693713  0.66775601    -0.04000
C1163       C  0.54262980  0.11170105  0.82426071    -0.11400
C1164       C  0.55826177  0.15185512  0.81790661     0.04100
C1165       C  0.58465916  0.17842230  0.83963371    -0.11900
C1166       C  0.59834848  0.16630316  0.86683531     0.19000
C1167       C  0.58610278  0.12625622  0.87086043    -0.08900
C1168       C  0.55763296  0.09947283  0.85039592    -0.01900
H1169       H  0.59271511  0.20866450  0.83609898     0.05500
C1170       C  0.61870478  0.19451857  0.89323177     0.20900
H1171       H  0.54682544  0.06883541  0.85518114     0.10700
C1172       C  0.60449577  0.18390064  0.92474719    -0.15300
C1173       C  0.61567508  0.21094796  0.94911331     0.03700
C1174       C  0.63944270  0.25088315  0.94188535    -0.10600
C1175       C  0.65540420  0.26140138  0.91079804    -0.00600
C1176       C  0.64678258  0.23350163  0.88713562    -0.05800
H1177       H  0.58217501  0.15468474  0.93016001     0.06700
H1178       H  0.67271653  0.29157359  0.90401516     0.10100
Br1179     Br  0.60716701  0.10625415  0.90375806    -0.05500
Br1180     Br  0.54261853  0.17286043  0.78181434    -0.02400
Br1181     Br  0.59187587  0.19096387  0.99020358     0.00400
Br1182     Br  0.67372962  0.25049029  0.84689945    -0.04000
C1183       C  0.40475728  0.08871605  0.66669085    -0.11400
C1184       C  0.41224245  0.12663149  0.67348411     0.04100
C1185       C  0.40165719  0.14716729  0.65130084    -0.11900
C1186       C  0.38463280  0.13115770  0.62183347     0.19000
C1187       C  0.37657144  0.09321937  0.61498136    -0.08900
C1188       C  0.38653955  0.07223815  0.63743991    -0.01900
H1189       H  0.40909805  0.17681742  0.65609654     0.05500
C1190       C  0.38124251  0.15647681  0.59664237     0.20900
H1191       H  0.38124270  0.04350564  0.63159684     0.10700
C1192       C  0.40671317  0.16838178  0.57084117    -0.15300
C1193       C  0.40239304  0.18845486  0.54419481     0.03700
C1194       C  0.37123492  0.19675315  0.54316121    -0.10600
C1195       C  0.34872268  0.18868944  0.57107078    -0.00600
C1196       C  0.35356317  0.16874934  0.59773148    -0.05800
H1197       H  0.42937045  0.16054715  0.57095093     0.06700
H1198       H  0.32566100  0.19588775  0.57136206     0.10100
Br1199     Br  0.35365304  0.06972582  0.57465871    -0.05500
Br1200     Br  0.44219107  0.15515917  0.70956013    -0.02400
Br1201     Br  0.43047522  0.19715089  0.00776936     0.00400
Br1202     Br  0.32004376  0.15645508  0.63392713    -0.04000
C1203       C  0.41374065  0.11452140  0.80148514    -0.11400
C1204       C  0.37940480  0.09374375  0.81917722     0.04100
C1205       C  0.36656224  0.11359908  0.83840075    -0.11900
C1206       C  0.38729617  0.15404770  0.84087294     0.19000
C1207       C  0.41974937  0.17502927  0.82126396    -0.08900
C1208       C  0.43244366  0.15528333  0.80174239    -0.01900
H1209       H  0.34129051  0.09710800  0.85313394     0.05500
C1210       C  0.37905557  0.17159380  0.86873722     0.20900
H1211       H  0.45847418  0.17211137  0.78801201     0.10700
C1212       C  0.38138074  0.15703203  0.89951543    -0.15300
C1213       C  0.36962838  0.16787132  0.92684280     0.03700
C1214       C  0.35988280  0.19785246  0.92471758    -0.10600
C1215       C  0.35601738  0.21153846  0.89374708    -0.00600
C1216       C  0.36506376  0.19830798  0.86577782    -0.05800
H1217       H  0.38949219  0.13450845  0.90199140     0.06700
H1218       H  0.34475895  0.23157353  0.89125696     0.10100
Br1219     Br  0.45013833  0.23022176  0.82214426    -0.05500
Br1220     Br  0.34867373  0.03851861  0.81919835    -0.02400
Br1221     Br  0.35776897  0.13315522  0.96354962     0.00400
Br1222     Br  0.35404079  0.21432353  0.82445092    -0.04000
C1223       C  0.20794768  0.82109142  0.54257691    -0.11400
C1224       C  0.21289817  0.80944891  0.57411573     0.04100
C1225       C  0.23595765  0.83719365  0.59661183    -0.11900
C1226       C  0.25380743  0.87685844  0.58848374     0.19000
C1227       C  0.24490786  0.88861213  0.55842164    -0.08900
C1228       C  0.22217141  0.86080907  0.53574509    -0.01900
H1229       H  0.24190479  0.82765067  0.61985978     0.05500
C1230       C  0.28514946  0.90456213  0.60978858     0.20900
H1231       H  0.21837934  0.87050216  0.51183542     0.10700
C1232       C  0.32311845  0.92299726  0.59852609    -0.15300
C1233       C  0.35435601  0.94503647  0.61904316     0.03700
C1234       C  0.34792189  0.94894287  0.65198034    -0.10600
C1235       C  0.30951736  0.93179331  0.66258945    -0.00600
C1236       C  0.27851131  0.90972970  0.64200868    -0.05800
H1237       H  0.32861368  0.91905834  0.57377307     0.06700
H1238       H  0.30333462  0.93449996  0.68742859     0.10100
Br1239     Br  0.26480858  0.94230419  0.54681279    -0.05500
Br1240     Br  0.19114903  0.75585288  0.58671314    -0.02400
Br1241     Br  0.40452030  0.96756914  0.60009048     0.00400
Br1242     Br  0.22752697  0.88689505  0.65912460    -0.04000
C1243       C  0.34562916  0.94575095  0.82105249    -0.11400
C1244       C  0.30656161  0.92715479  0.81053054     0.04100
C1245       C  0.27796050  0.89934215  0.83056897    -0.11900
C1246       C  0.28724623  0.88959343  0.86101091     0.19000
C1247       C  0.32573029  0.90831027  0.87176385    -0.08900
C1248       C  0.35441152  0.93610291  0.85195625    -0.01900
H1249       H  0.24826538  0.88527044  0.82240554     0.05500
C1250       C  0.25665790  0.86065462  0.88198823     0.20900
H1251       H  0.38390693  0.94946002  0.86056515     0.10700
C1252       C  0.24444028  0.82114573  0.87859982    -0.15300
C1253       C  0.22138259  0.79399171  0.90222337     0.03700
C1254       C  0.21102809  0.80652202  0.93002867    -0.10600
C1255       C  0.22060884  0.84573427  0.93157687    -0.00600
C1256       C  0.24276424  0.87253701  0.90767857    -0.05800
H1257       H  0.25431717  0.81167557  0.85837388     0.06700
H1258       H  0.21300745  0.85633312  0.95231969     0.10100
Br1259     Br  0.34059173  0.89604068  0.91313010    -0.05500
Br1260     Br  0.28931992  0.93777210  0.76948834    -0.02400
Br1261     Br  0.20593195  0.74047417  0.89597690     0.00400
Br1262     Br  0.25574495  0.92568246  0.91227431    -0.04000
C1263       C  0.46865149  0.92144148  0.68866416    -0.11400
C1264       C  0.50687989  0.93234522  0.68018635     0.04100
C1265       C  0.51382937  0.91064340  0.65781774    -0.11900
C1266       C  0.48346899  0.87700613  0.64489984     0.19000
C1267       C  0.44657470  0.86232311  0.65811467    -0.08900
C1268       C  0.43919845  0.88489228  0.67922476    -0.01900
H1269       H  0.54284975  0.92115230  0.64929457     0.05500
C1270       C  0.49030070  0.86090647  0.61534248     0.20900
H1271       H  0.40987301  0.87460131  0.68679488     0.10700
C1272       C  0.51965270  0.85074065  0.61529594    -0.15300
C1273       C  0.53204553  0.84315003  0.58628774     0.03700
C1274       C  0.51448334  0.84495772  0.55670768    -0.10600
C1275       C  0.48354881  0.85264247  0.55710649    -0.00600
C1276       C  0.47192143  0.86136208  0.58578079    -0.05800
H1277       H  0.53434187  0.85072332  0.63769833     0.06700
H1278       H  0.47062773  0.85556738  0.53456142     0.10100
Br1279     Br  0.40531524  0.81227042  0.64718802    -0.05500
Br1280     Br  0.55074284  0.97613535  0.69820958    -0.02400
Br1281     Br  0.57451500  0.83279881  0.58812179     0.00400
Br1282     Br  0.43525576  0.87988801  0.58175253    -0.04000
C1283       C  0.52162205  0.87275590  0.95772330    -0.11400
C1284       C  0.48674814  0.87346947  0.95269230     0.04100
C1285       C  0.47733738  0.88292604  0.92206178    -0.11900
C1286       C  0.50161199  0.89076053  0.89545856     0.19000
C1287       C  0.53521676  0.88738231  0.89999986    -0.08900
C1288       C  0.54531037  0.87935255  0.93094944    -0.01900
H1289       H  0.45172990  0.88594342  0.91940867     0.05500
C1290       C  0.49338562  0.90638209  0.86457299     0.20900
H1291       H  0.57286252  0.88051522  0.93411413     0.10700
C1292       C  0.52106592  0.94267664  0.85223040    -0.15300
C1293       C  0.51304382  0.96068259  0.82560434     0.03700
C1294       C  0.47585985  0.94300948  0.81126532    -0.10600
C1295       C  0.44893576  0.90572852  0.82261253    -0.00600
C1296       C  0.45734203  0.88748190  0.84876419    -0.05800
H1297       H  0.54892173  0.95778751  0.86401051     0.06700
H1298       H  0.42039203  0.89104654  0.81198333     0.10100
Br1299     Br  0.56888314  0.89424984  0.86494095    -0.05500
Br1300     Br  0.45262931  0.86521801  0.98774185    -0.02400
Br1301     Br  0.55451594  0.00927447  0.81057637     0.00400
Br1302     Br  0.41816726  0.83677904  0.86197427    -0.04000
loop_ 
_geom_bond_atom_site_label_1 
_geom_bond_atom_site_label_2 
_geom_bond_distance 
_geom_bond_site_symmetry_2 
_ccdc_geom_bond_type 
N1            C2   1.360       .  A
N1          C656   1.370   1_554  A
N1          C820   1.445       .  S
C2            C3   1.387       .  A
C2          C623   1.477       .  S
C3          C655   1.364       .  A
C3            H6   1.083       .  S
C4            C5   1.381       .  A
C4          C654   1.374       .  A
C4            H7   1.083       .  S
C5          N652   1.363       .  A
C5          C632   1.491       .  S
N8           C12   1.359       .  A
N8          C660   1.361       .  A
N8          N108   1.424       .  S
C9          N659   1.362   1_554  A
C9           C10   1.382       .  A
C9          C572   1.489       .  S
C10         C662   1.374   1_554  A
C10          H13   1.083       .  S
C11          C12   1.382       .  A
C11         C661   1.373       .  A
C11          H14   1.082       .  S
C12         C603   1.484       .  S
O15          C23   1.273       .  A
O15         Co35   1.988   1_565  S
O16          C24   1.258       .  A
O16         Co36   1.979       .  S
O17          C25   1.279       .  A
O17         Co37   2.037       .  S
O18          C26   1.297       .  A
O18         Co38   2.109       .  S
O19          C25   1.264       .  A
O19         Co36   1.964   1_565  S
O20          C26   1.273       .  A
O20         Co35   1.904       .  S
O21          C24   1.258       .  A
O21         Co38   1.992       .  S
O22          C23   1.272       .  A
O22         Co37   1.998       .  S
C23         C643   1.487       .  S
C24         C503   1.474       .  S
C25         C612   1.492       .  S
C26         C512   1.490       .  S
O27          C40   1.297       .  A
O27         Co35   2.127       .  S
O28          C41   1.270       .  A
O28         Co36   2.019   1_565  S
O29          C42   1.260       .  A
O29         Co37   1.966       .  S
O30          C43   1.270       .  A
O30         Co38   1.971       .  S
O31          C43   1.282       .  A
O31         Co36   2.030       .  S
O32          C42   1.272       .  A
O32         Co35   2.016   1_565  S
O33          C40   1.258       .  A
O33         Co38   1.871       .  S
O34          C41   1.259       .  A
O34         Co37   1.965       .  S
Co35         O39   2.010       .  S
Co36         O39   2.027       .  S
Co37         O39   2.023   1_565  S
Co38         O39   1.996       .  S
C40         C552   1.486       .  S
C41         C583   1.484       .  S
C42         C592   1.486       .  S
C43         C532   1.479       .  S
N44          C48   1.355       .  A
N44          C45   1.365       .  A
N44         N144   1.427       .  S
C45          C46   1.383       .  A
C45         C563   1.482       .  S
C46          C47   1.373       .  A
C46          H49   1.083       .  S
C47          C48   1.384       .  A
C47         H701   1.082       .  S
C48        C1194   1.492       .  S
H50         C698   1.082   1_554  S
N51          C52   1.375       .  A
N51         C706   1.368       .  A
N51         N745   1.434       .  S
C52          C53   1.383       .  A
C52         C523   1.491       .  S
C53         C705   1.360       .  A
C53          H56   1.083       .  S
C54          C55   1.382   1_556  A
C54         C704   1.363       .  A
C54          H57   1.079       .  S
C55         N702   1.367   1_554  A
C55         C492   1.493       .  S
O58          C66   1.261       .  A
O58         Co78   2.009       .  S
O59          C67   1.279       .  A
O59         Co79   2.026       .  S
O60          C68   1.257       .  A
O60         Co80   1.956       .  S
O61          C69   1.259       .  A
O61         Co81   1.881       .  S
O62          C68   1.274       .  A
O62         Co79   2.032       .  S
O63          C69   1.303       .  A
O63         Co78   2.134       .  S
O64          C67   1.268       .  A
O64         Co81   1.981       .  S
O65          C66   1.254       .  A
O65         Co80   1.966       .  S
C66         C483   1.472   1_655  S
C67         C332   1.501       .  S
C68         C452   1.478   1_655  S
C69         C352   1.495       .  S
O70          C83   1.267       .  A
O70         Co78   1.885       .  S
O71          C84   1.268   1_655  A
O71         Co79   1.983       .  S
O72          C85   1.279       .  A
O72         Co80   2.021   1_455  S
O73          C86   1.262       .  A
O73         Co81   1.988       .  S
O74          C86   1.263       .  A
O74         Co79   1.994       .  S
O75          C85   1.272   1_655  A
O75         Co78   1.987       .  S
O76          C83   1.296       .  A
O76         Co81   2.110       .  S
O77          C84   1.273       .  A
O77         Co80   2.026   1_455  S
Co78         O82   2.028       .  S
Co79         O82   2.055       .  S
Co80         O82   2.026       .  S
Co81         O82   2.006       .  S
C83         C392   1.491       .  S
C84         C412   1.503       .  S
C85         C432   1.503       .  S
C86         C372   1.475       .  S
N87          C88   1.366   1_556  A
N87         C742   1.365       .  A
N87         N802   1.427       .  S
C88          C89   1.384   1_554  A
C88         C423   1.491       .  S
C89         C741   1.373       .  A
C89          H92   1.083   1_556  S
C90          C91   1.382       .  A
C90         C740   1.373       .  A
C90          H93   1.082       .  S
C91         N738   1.366       .  A
C91         C443   1.495       .  S
N94          C95   1.375       .  A
N94         C749   1.368   1_554  A
N94         N702   1.434   1_554  S
C95          C96   1.382       .  A
C95         C383   1.486       .  S
C96         C748   1.358   1_554  A
C96          H99   1.082       .  S
C97          C98   1.380       .  A
C97         C747   1.357       .  A
C97         H100   1.083       .  S
C98         N745   1.368       .  A
C98         C403   1.487       .  S
N101        C105   1.371       .  A
N101        C753   1.377       .  A
N101        N158   1.433       .  S
C102        N752   1.375   1_554  A
C102        C103   1.380   1_554  A
C102        C343   1.480       .  S
C103        C755   1.351       .  A
C103        H106   1.083   1_556  S
C104        C105   1.377       .  A
C104        C754   1.355       .  A
C104        H107   1.083       .  S
C105        C363   1.483       .  S
N108        C109   1.362       .  A
N108        C763   1.361       .  A
C109        C110   1.382       .  A
C109        C472   1.491       .  S
C110        C762   1.372       .  A
C110        H113   1.083       .  S
C111        C112   1.383   1_556  A
C111        C761   1.373       .  A
C111        H114   1.082   1_556  S
C112        N759   1.361   1_554  A
C112        C463   1.487       .  S
O115        C123   1.261       .  A
O115       Co135   1.877       .  S
O116        C124   1.268       .  A
O116       Co136   1.974       .  S
O117        C125   1.257       .  A
O117       Co137   1.983       .  S
O118        C126   1.275       .  A
O118       Co138   2.023       .  S
O119        C125   1.261       .  A
O119       Co136   1.993       .  S
O120        C126   1.271       .  A
O120       Co135   1.980       .  S
O121        C124   1.275       .  A
O121       Co138   2.032       .  S
O122        C123   1.300       .  A
O122       Co137   2.122       .  S
C123        C323   1.492       .  S
C124        C183   1.502       .  S
C125        C292   1.478       .  S
C126        C203   1.495       .  S
O127        C140   1.264       .  A
O127       Co135   2.006       .  S
O128        C141   1.281       .  A
O128       Co136   2.029       .  S
O129        C142   1.259       .  A
O129       Co137   1.883       .  S
O130        C143   1.263       .  A
O130       Co138   1.971       .  S
O131        C143   1.272       .  A
O131       Co136   2.016       .  S
O132        C142   1.300       .  A
O132       Co135   2.125       .  S
O133        C140   1.265       .  A
O133       Co138   1.997       .  S
O134        C141   1.273       .  A
O134       Co137   1.984       .  S
Co135       O139   1.998       .  S
Co136       O139   2.042       .  S
Co137       O139   2.011       .  S
Co138       O139   2.044       .  S
C140        C232   1.495       .  S
C141        C263   1.495       .  S
C142        C283   1.488       .  S
C143        C223   1.482       .  S
N144        C148   1.360       .  A
N144        C796   1.364       .  A
C145        N795   1.365   1_554  A
C145        C797   1.382       .  A
C145        C312   1.487       .  S
C146        C147   1.371       .  A
C146        C796   1.382       .  A
C146        H800   1.082       .  S
C147        C148   1.385       .  A
C147        H150   1.083       .  S
C148        C303   1.477       .  S
H149        C797   1.082       .  S
N151        C152   1.370       .  A
N151        C806   1.368       .  A
N151        N738   1.428       .  S
C152        C153   1.384       .  A
C152        C172   1.498       .  S
C153        C154   1.373       .  A
C153        H156   1.082       .  S
C154        C806   1.380       .  A
C154        H808   1.083       .  S
C155        N802   1.366   1_554  A
C155        C805   1.381       .  A
C155        C192   1.491       .  S
H157        C805   1.083       .  S
N158        C159   1.375       .  A
N158        C813   1.372       .  A
C159        C160   1.382       .  A
C159        C252   1.491       .  S
C160        C161   1.358       .  A
C160        H163   1.083       .  S
C161        C813   1.378       .  A
C161        H815   1.083       .  S
C162        N809   1.371   1_554  A
C162        C812   1.376       .  A
C162        C272   1.485       .  S
H164        C812   1.083       .  S
N165        C169   1.359       .  A
N165        C166   1.352       .  A
N165        C894   1.444       .  S
C166        C167   1.382       .  A
C166        C212   1.480       .  S
C167        C168   1.377       .  A
C167        H170   1.082       .  S
C168        C169   1.384       .  A
C168        H171   1.082       .  S
C169        N652   1.443       .  S
C172        C173   1.414       .  A
C172        C177   1.402       .  A
C173        C174   1.408       .  A
C173       Br189   1.918       .  S
C174        C175   1.407       .  A
C174        H178   1.083       .  S
C175        C176   1.408       .  A
C175        C179   1.491       .  S
C176        C177   1.397       .  A
C176       Br188   1.922       .  S
C177        H180   1.071       .  S
C179        C181   1.402       .  A
C179        C185   1.408       .  A
C181        C182   1.403       .  A
C181        H186   1.084       .  S
C182        C183   1.422       .  A
C182       Br190   1.922       .  S
C183        C184   1.412       .  A
C184        C185   1.403       .  A
C184        H187   1.083       .  S
C185       Br191   1.919       .  S
C192        C193   1.414       .  A
C192        C197   1.409       .  A
C193        C194   1.393       .  A
C193       Br209   1.910       .  S
C194        C195   1.397       .  A
C194        H198   1.084       .  S
C195        C196   1.410       .  A
C195        C199   1.486       .  S
C196        C197   1.409       .  A
C196       Br208   1.915       .  S
C197        H200   1.083       .  S
C199        C201   1.401       .  A
C199        C205   1.410       .  A
C201        C202   1.405       .  A
C201        H206   1.084       .  S
C202        C203   1.420       .  A
C202       Br210   1.919       .  S
C203        C204   1.407       .  A
C204        C205   1.399       .  A
C204        H207   1.083       .  S
C205       Br211   1.921       .  S
C212        C213   1.405       .  A
C212        C217   1.404       .  A
C213        C214   1.403       .  A
C213       Br229   1.915       .  S
C214        C215   1.407       .  A
C214        H218   1.084       .  S
C215        C216   1.408       .  A
C215        C219   1.484       .  S
C216        C217   1.397       .  A
C216       Br228   1.920       .  S
C217        H220   1.084       .  S
C219        C221   1.403       .  A
C219        C225   1.407       .  A
C221        C222   1.400       .  A
C221        H226   1.084       .  S
C222        C223   1.415       .  A
C222       Br230   1.923       .  S
C223        C224   1.406       .  A
C224        C225   1.400       .  A
C224        H227   1.083       .  S
C225       Br231   1.918       .  S
C232        C233   1.416       .  A
C232        C237   1.409       .  A
C233        C234   1.404       .  A
C233       Br249   1.918       .  S
C234        C235   1.404       .  A
C234        H238   1.084       .  S
C235        C236   1.408       .  A
C235        C239   1.492       .  S
C236        C237   1.406       .  A
C236       Br248   1.918       .  S
C237        H240   1.083       .  S
C239        C241   1.410       .  A
C239        C245   1.407       .  A
C241        C893   1.411       .  A
C241        H246   1.083       .  S
C242        C892   1.399       .  A
C242        C894   1.414       .  A
C242       Br250   1.919       .  S
C243        N816   1.449   1_554  S
C243        C244   1.409       .  A
C243        C893   1.407       .  A
C244        C245   1.398       .  A
C244        H247   1.083       .  S
C245       Br251   1.919       .  S
C252        C253   1.414       .  A
C252        C257   1.405       .  A
C253        C254   1.400       .  A
C253       Br269   1.919       .  S
C254        C255   1.401       .  A
C254        H258   1.083       .  S
C255        C256   1.411       .  A
C255        C259   1.488       .  S
C256        C257   1.405       .  A
C256       Br268   1.918       .  S
C257        H260   1.079       .  S
C259        C261   1.403       .  A
C259        C265   1.409       .  A
C261        C262   1.407       .  A
C261        H266   1.083       .  S
C262        C263   1.419       .  A
C262       Br270   1.919       .  S
C263        C264   1.407       .  A
C264        C265   1.398       .  A
C264        H267   1.083       .  S
C265       Br271   1.921       .  S
C272        C273   1.412       .  A
C272        C277   1.408       .  A
C273        C274   1.399       .  A
C273       Br289   1.911       .  S
C274        C275   1.401       .  A
C274        H278   1.084       .  S
C275        C276   1.406       .  A
C275        C279   1.483       .  S
C276        C277   1.400       .  A
C276       Br288   1.917       .  S
C277        H931   1.083       .  S
C279        C281   1.399       .  A
C279        C285   1.411       .  A
H280        C928   1.083       .  S
C281        C282   1.400       .  A
C281        H286   1.084       .  S
C282        C283   1.421       .  A
C282       Br290   1.923       .  S
C283        C284   1.404       .  A
C284        C285   1.400       .  A
C284        H287   1.083       .  S
C285       Br291   1.919       .  S
C292        C293   1.408       .  A
C292        C297   1.405       .  A
C293        C294   1.406       .  A
C293       Br309   1.916       .  S
C294        C295   1.407       .  A
C294        H298   1.083       .  S
C295        C296   1.407       .  A
C295        C299   1.480       .  S
C296        C297   1.393       .  A
C296       Br308   1.922       .  S
C297        H300   1.084       .  S
C299        C301   1.405       .  A
C299        C305   1.408       .  A
C301        C302   1.402       .  A
C301        H306   1.083       .  S
C302        C303   1.409       .  A
C302       Br310   1.920       .  S
C303        C304   1.405       .  A
C304        C305   1.397       .  A
C304        H307   1.083       .  S
C305       Br311   1.919       .  S
C312        C313   1.411       .  A
C312        C317   1.403       .  A
C313        C314   1.399       .  A
C313       Br329   1.917       .  S
C314        C315   1.404       .  A
C314        H318   1.083       .  S
C315        C316   1.414       .  A
C315        C319   1.490       .  S
C316        C317   1.399       .  A
C316       Br328   1.920       .  S
C317        H320   1.083       .  S
C319        C321   1.400       .  A
C319        C325   1.412       .  A
C321        C322   1.392       .  A
C321        H326   1.084       .  S
C322        C323   1.419       .  A
C322       Br330   1.923       .  S
C323        C324   1.410       .  A
C324        C325   1.408       .  A
C324        H327   1.083       .  S
C325       Br331   1.919       .  S
C332        C333   1.422       .  A
C332        C337   1.408       .  A
C333        C334   1.410       .  A
C333       Br349   1.920       .  S
C334        C335   1.404       .  A
C334        H338   1.083       .  S
C335        C336   1.407       .  A
C335        C339   1.486       .  S
C336        C337   1.394       .  A
C336       Br348   1.923       .  S
C337        H340   1.082       .  S
C339        C341   1.401       .  A
C339        C345   1.411       .  A
C341        C342   1.399       .  A
C341        H346   1.083       .  S
C342        C343   1.413       .  A
C342       Br350   1.920       .  S
C343        C344   1.404       .  A
C344        C345   1.403       .  A
C344        H347   1.083       .  S
C345       Br351   1.917       .  S
C352        C353   1.425       .  A
C352        C357   1.407       .  A
C353        C354   1.402       .  A
C353       Br369   1.924       .  S
C354        C355   1.396       .  A
C354        H358   1.084       .  S
C355        C356   1.409       .  A
C355        C359   1.482       .  S
C356        C357   1.401       .  A
C356       Br368   1.919       .  S
C357        H360   1.083       .  S
C359        C361   1.402       .  A
C359        C365   1.405       .  A
C361        C362   1.403       .  A
C361        H366   1.084       .  S
C362        C363   1.412       .  A
C362       Br370   1.914       .  S
C363        C364   1.407       .  A
C364        C365   1.399       .  A
C364        H367   1.083       .  S
C365       Br371   1.918       .  S
C372        C373   1.409       .  A
C372        C377   1.399       .  A
C373        C374   1.411       .  A
C373       Br389   1.916       .  S
C374        C375   1.409       .  A
C374        H378   1.083       .  S
C375        C376   1.411       .  A
C375        C379   1.485       .  S
C376        C377   1.388       .  A
C376       Br388   1.923       .  S
C377        H380   1.083       .  S
C379        C381   1.403       .  A
C379        C385   1.407       .  A
C381        C382   1.398       .  A
C381        H386   1.084       .  S
C382        C383   1.413       .  A
C382       Br390   1.915       .  S
C383        C384   1.406       .  A
C384        C385   1.403       .  A
C384        H387   1.080       .  S
C385       Br391   1.917       .  S
C392        C393   1.420       .  A
C392        C397   1.409       .  A
C393        C394   1.402       .  A
C393       Br409   1.919       .  S
C394        C395   1.401       .  A
C394        H398   1.084       .  S
C395        C396   1.407       .  A
C395        C399   1.480       .  S
C396        C397   1.396       .  A
C396       Br408   1.921       .  S
C397        H400   1.083       .  S
C399        C401   1.402       .  A
C399        C405   1.407       .  A
C401        C402   1.402       .  A
C401        H406   1.083       .  S
C402        C403   1.415       .  A
C402       Br410   1.917       .  S
C403        C404   1.408       .  A
C404        C405   1.395       .  A
C404        H407   1.084       .  S
C405       Br411   1.922       .  S
C412        C413   1.423       .  A
C412        C417   1.410       .  A
C413        C414   1.405       .  A
C413       Br429   1.923       .  S
C414        C415   1.403       .  A
C414        H418   1.084       .  S
C415        C416   1.410       .  A
C415        C419   1.497       .  S
C416        C417   1.406       .  A
C416       Br428   1.919       .  S
C417        H420   1.083       .  S
C419        C421   1.407       .  A
C419        C425   1.413       .  A
C421        C422   1.407       .  A
C421        H426   1.083       .  S
C422        C423   1.412       .  A
C422       Br430   1.918       .  S
C423        C424   1.404       .  A
C424        C425   1.403       .  A
C424        H427   1.083       .  S
C425       Br431   1.921       .  S
C432        C433   1.418       .  A
C432        C437   1.409       .  A
C433        C434   1.412       .  A
C433       Br449   1.919   1_455  S
C434        C435   1.410       .  A
C434        H438   1.083       .  S
C435        C436   1.413       .  A
C435        C439   1.502       .  S
C436        C437   1.396       .  A
C436       Br448   1.924       .  S
C437        H440   1.083       .  S
C439        C441   1.407       .  A
C439        C445   1.415       .  A
C441        C442   1.402       .  A
C441        H446   1.083       .  S
C442        C443   1.412       .  A
C442       Br450   1.918       .  S
C443        C444   1.406       .  A
C444        C445   1.406       .  A
C444        H447   1.083       .  S
C445       Br451   1.919       .  S
C452        C453   1.406   1_455  A
C452        C457   1.407       .  A
C453        C454   1.398   1_655  A
C453       Br469   1.913       .  S
C454        C455   1.406       .  A
C454        H458   1.084       .  S
C455        C456   1.409       .  A
C455        C459   1.485       .  S
C456        C457   1.400       .  A
C456       Br468   1.920       .  S
C457        H460   1.084       .  S
C459        C461   1.407       .  A
C459        C465   1.409       .  A
C461        C462   1.404       .  A
C461        H466   1.083       .  S
C462        C463   1.411       .  A
C462       Br470   1.918       .  S
C463        C464   1.404       .  A
C464        C465   1.393       .  A
C464        H467   1.081       .  S
C465       Br471   1.923       .  S
C472        C473   1.411       .  A
C472        C477   1.406       .  A
C473        C474   1.402       .  A
C473       Br489   1.917       .  S
C474        C475   1.404       .  A
C474        H478   1.084       .  S
C475        C476   1.406       .  A
C475        C479   1.481       .  S
C476        C477   1.395       .  A
C476       Br488   1.921       .  S
C477        H480   1.083       .  S
C479        C481   1.400       .  A
C479        C485   1.413       .  A
C481        C482   1.398       .  A
C481        H486   1.084       .  S
C482        C483   1.413       .  A
C482       Br490   1.921       .  S
C483        C484   1.400   1_455  A
C484        C485   1.401   1_655  A
C484        H487   1.084       .  S
C485       Br491   1.920   1_455  S
C492        C493   1.417       .  A
C492        C497   1.408       .  A
C493        C494   1.399       .  A
C493       Br509   1.922       .  S
C494        C495   1.402       .  A
C494        H498   1.084       .  S
C495        C496   1.405       .  A
C495        C499   1.479       .  S
C496        C497   1.395       .  A
C496       Br508   1.918       .  S
C497        H500   1.083       .  S
C499        C501   1.401       .  A
C499        C505   1.408       .  A
C501        C502   1.395       .  A
C501        H506   1.084       .  S
C502        C503   1.411       .  A
C502       Br510   1.919       .  S
C503        C504   1.406       .  A
C504        C505   1.402       .  A
C504        H507   1.083       .  S
C505       Br511   1.918       .  S
C512        C513   1.413       .  A
C512        C517   1.405       .  A
C513        C514   1.398       .  A
C513       Br529   1.913       .  S
C514        C515   1.405       .  A
C514        H518   1.082       .  S
C515        C516   1.419       .  A
C515        C519   1.504       .  S
C516        C517   1.408       .  A
C516       Br528   1.920       .  S
C517        H520   1.083       .  S
C519        C521   1.404       .  A
C519        C525   1.418       .  A
C521        C522   1.396       .  A
C521        H526   1.081       .  S
C522        C523   1.414       .  A
C522       Br530   1.915       .  S
C523        C524   1.406       .  A
C524        C525   1.406       .  A
C524        H527   1.081       .  S
C525       Br531   1.921       .  S
C532        C533   1.416       .  A
C532        C537   1.403       .  A
C533        C534   1.397       .  A
C533       Br549   1.911       .  S
C534        C535   1.398       .  A
C534        H538   1.084       .  S
C535        C536   1.410       .  A
C535        C539   1.479       .  S
C536        C537   1.399       .  A
C536       Br548   1.919       .  S
C537        H540   1.084       .  S
C539        C541   1.398       .  A
C539        C545   1.405       .  A
C541        C542   1.396       .  A
C541        H546   1.084       .  S
C542        C543   1.425       .  A
C542      Br1201   1.924       .  S
C543        C544   1.409       .  A
C543        C699   1.498       .  S
C544        C545   1.399       .  A
C544        H547   1.083       .  S
C545       Br551   1.918       .  S
Br550      C1193   1.924       .  S
C552        C553   1.412       .  A
C552        C557   1.408       .  A
C553        C554   1.396       .  A
C553       Br569   1.910       .  S
C554        C555   1.404       .  A
C554        H558   1.084       .  S
C555        C556   1.407       .  A
C555        C559   1.483       .  S
C556        C557   1.396       .  A
C556       Br568   1.915       .  S
C557        H560   1.082       .  S
C559        C561   1.400       .  A
C559        C565   1.412       .  A
C561        C562   1.389       .  A
C561        H566   1.084       .  S
C562        C563   1.412       .  A
C562       Br570   1.920       .  S
C563        C564   1.405       .  A
C564        C565   1.405       .  A
C564        H567   1.082       .  S
C565       Br571   1.918       .  S
C572        C573   1.411       .  A
C572        C577   1.407       .  A
C573        C574   1.403       .  A
C573       Br589   1.917       .  S
C574        C575   1.403       .  A
C574        H578   1.083       .  S
C575        C576   1.405       .  A
C575        C579   1.479       .  S
C576        C577   1.399       .  A
C576       Br588   1.919       .  S
C577        H580   1.078       .  S
C579        C581   1.401       .  A
C579        C585   1.405       .  A
C581        C582   1.398       .  A
C581        H586   1.084       .  S
C582        C583   1.416       .  A
C582       Br590   1.923       .  S
C583        C584   1.409       .  A
C584        C585   1.402       .  A
C584        H587   1.083       .  S
C585       Br591   1.916       .  S
C592        C593   1.420       .  A
C592        C597   1.406       .  A
C593        C594   1.400       .  A
C593       Br609   1.922       .  S
C594        C595   1.398       .  A
C594        H598   1.084       .  S
C595        C596   1.406       .  A
C595        C599   1.474       .  S
C596        C597   1.397       .  A
C596       Br608   1.920       .  S
C597        H600   1.083       .  S
C599        C601   1.403       .  A
C599        C605   1.403       .  A
C601        C602   1.401       .  A
C601        H606   1.083       .  S
C602        C603   1.410       .  A
C602       Br610   1.918       .  S
C603        C604   1.406       .  A
C604        C605   1.394       .  A
C604        H607   1.082       .  S
C605       Br611   1.919       .  S
C612        C613   1.419       .  A
C612        C617   1.411       .  A
C613        C614   1.395       .  A
C613       Br629   1.921       .  S
C614        C615   1.400       .  A
C614        H618   1.084       .  S
C615        C616   1.407       .  A
C615        C619   1.485       .  S
C616        C617   1.406       .  A
C616       Br628   1.916       .  S
C617        H620   1.083       .  S
C619        C621   1.406       .  A
C619        C625   1.411       .  A
C621        C622   1.402       .  A
C621        H626   1.083       .  S
C622        C623   1.406       .  A
C622       Br630   1.916       .  S
C623        C624   1.403       .  A
C624        C625   1.399       .  A
C624        H627   1.082       .  S
C625       Br631   1.920       .  S
C632        C633   1.414       .  A
C632        C637   1.405       .  A
C633        C634   1.392       .  A
C633       Br649   1.921       .  S
C634        C635   1.400       .  A
C634        H638   1.085       .  S
C635        C636   1.411       .  A
C635        C639   1.483       .  S
C636        C637   1.404       .  A
C636       Br648   1.918       .  S
C637        H640   1.083       .  S
C639        C641   1.407       .  A
C639        C645   1.407       .  A
C641        C642   1.401       .  A
C641        H646   1.084       .  S
C642        C643   1.409       .  A
C642       Br650   1.918       .  S
C643        C644   1.412       .  A
C644        C645   1.397       .  A
C644        H647   1.084       .  S
C645       Br651   1.921       .  S
N652        C653   1.356       .  A
C653        C654   1.385       .  A
C653       C1274   1.482       .  S
C654        H657   1.082       .  S
C655        C656   1.375   1_554  A
C655        H658   1.082   1_554  S
C656       C1283   1.489       .  S
N659        C663   1.360       .  A
N659        N759   1.425       .  S
C660        C661   1.384       .  A
C660       C1223   1.489       .  S
C661        H664   1.082       .  S
C662        C663   1.385       .  A
C662        H665   1.082       .  S
C663       C1254   1.490       .  S
O666        C674   1.268   1_545  A
O666       Co686   1.969       .  S
O667        C675   1.259       .  A
O667       Co687   1.978       .  S
O668        C676   1.273       .  A
O668       Co688   2.016       .  S
O669        C677   1.293       .  A
O669       Co689   2.095       .  S
O670        C676   1.265       .  A
O670       Co687   1.972   1_565  S
O671        C677   1.268       .  A
O671       Co686   1.908       .  S
O672        C675   1.260       .  A
O672       Co689   1.996       .  S
O673        C674   1.282       .  A
O673       Co688   2.036       .  S
C674       C1294   1.497       .  S
C675       C1154   1.479       .  S
C676       C1263   1.489       .  S
C677       C1163   1.487       .  S
O678        C691   1.294       .  A
O678       Co686   2.110       .  S
O679        C692   1.271       .  A
O679       Co687   2.027   1_565  S
O680        C693   1.251       .  A
O680       Co688   1.961       .  S
O681        C694   1.269       .  A
O681       Co689   1.969       .  S
O682        C694   1.279       .  A
O682       Co687   2.027       .  S
O683        C693   1.266       .  A
O683       Co686   2.016   1_565  S
O684        C691   1.259       .  A
O684       Co689   1.888       .  S
O685        C692   1.262       .  A
O685       Co688   1.969       .  S
Co686       O690   2.023       .  S
Co687       O690   2.037       .  S
Co688       O690   2.022   1_565  S
Co689       O690   2.014       .  S
C691       C1203   1.489       .  S
C692       C1234   1.499       .  S
C693       C1243   1.488       .  S
C694       C1183   1.472       .  S
N695        C699   1.358   1_556  A
N695        C696   1.366       .  A
N695        N795   1.427       .  S
C696        C697   1.383       .  A
C696       C1214   1.488       .  S
C697        C698   1.373       .  A
C697        H700   1.083       .  S
C698        C699   1.384   1_556  A
N702        C703   1.372       .  A
C703        C704   1.383       .  A
C703       C1174   1.494       .  S
C704        H707   1.083       .  S
C705        C706   1.380       .  A
C705        H708   1.081       .  S
C706       C1143   1.488       .  S
O709        C717   1.266       .  A
O709       Co729   2.021       .  S
O710        C718   1.281       .  A
O710       Co730   2.033       .  S
O711        C719   1.259       .  A
O711       Co731   1.959       .  S
O712        C720   1.258       .  A
O712       Co732   1.877       .  S
O713        C719   1.271       .  A
O713       Co730   2.022       .  S
O714        C720   1.303       .  A
O714       Co729   2.135       .  S
O715        C718   1.272       .  A
O715       Co732   1.988       .  S
O716        C717   1.258       .  A
O716       Co731   1.975       .  S
C717       C1134   1.488   1_655  S
C718        C983   1.508       .  S
C719       C1103   1.478       .  S
C720       C1003   1.493       .  S
O721        C734   1.269       .  A
O721       Co729   1.880       .  S
O722        C735   1.268   1_655  A
O722       Co730   1.978       .  S
O723        C736   1.276       .  A
O723       Co731   2.015   1_455  S
O724        C737   1.260       .  A
O724       Co732   1.990       .  S
O725        C737   1.260       .  A
O725       Co730   1.991       .  S
O726        C736   1.272   1_655  A
O726       Co729   1.988       .  S
O727        C734   1.301       .  A
O727       Co732   2.122       .  S
O728        C735   1.275       .  A
O728       Co731   2.031   1_455  S
Co729       O733   2.025       .  S
Co730       O733   2.058       .  S
Co731       O733   2.030       .  S
Co732       O733   2.002       .  S
C734       C1043   1.493       .  S
C735       C1063   1.501       .  S
C736       C1083   1.493       .  S
C737       C1023   1.477       .  S
N738        C739   1.365       .  A
C739        C740   1.383       .  A
C739       C1074   1.493       .  S
C740        H743   1.083       .  S
C741        C742   1.381       .  A
C741        H744   1.083       .  S
C742       C1094   1.493       .  S
N745        C746   1.375       .  A
C746        C747   1.382       .  A
C746       C1034   1.488       .  S
C747        H750   1.083       .  S
C748        C749   1.380       .  A
C748        H751   1.083       .  S
C749       C1054   1.486       .  S
N752        C756   1.371       .  A
N752        N809   1.432       .  S
C753        C754   1.384       .  A
C753        C994   1.495       .  S
C754        H757   1.082       .  S
C755        C756   1.378       .  A
C755        H758   1.083       .  S
C756       C1014   1.473       .  S
N759        C760   1.363       .  A
C760        C761   1.384       .  A
C760       C1123   1.496       .  S
C761        H764   1.082       .  S
C762        C763   1.385       .  A
C762        H765   1.082       .  S
C763       C1114   1.491       .  S
O766        C774   1.261       .  A
O766       Co786   1.884       .  S
O767        C775   1.268       .  A
O767       Co787   1.975       .  S
O768        C776   1.264       .  A
O768       Co788   2.002       .  S
O769        C777   1.277       .  A
O769       Co789   2.024       .  S
O770        C776   1.259       .  A
O770       Co787   1.981       .  S
O771        C777   1.273       .  A
O771       Co786   1.980       .  S
O772        C775   1.273       .  A
O772       Co789   2.024       .  S
O773        C774   1.300       .  A
O773       Co788   2.123       .  S
C774        C974   1.494       .  S
C775        C834   1.499       .  S
C776        C943   1.486       .  S
C777        C854   1.498       .  S
O778        C791   1.263       .  A
O778       Co786   1.998       .  S
O779        C792   1.281       .  A
O779       Co787   2.030       .  S
O780        C793   1.263       .  A
O780       Co788   1.886       .  S
O781        C794   1.270       .  A
O781       Co789   1.985       .  S
O782        C794   1.271       .  A
O782       Co787   2.002       .  S
O783        C793   1.301       .  A
O783       Co786   2.129       .  S
O784        C791   1.268       .  A
O784       Co789   2.005       .  S
O785        C792   1.271       .  A
O785       Co788   1.980       .  S
Co786       O790   1.988       .  S
Co787       O790   2.028       .  S
Co788       O790   2.010       .  S
Co789       O790   2.041       .  S
C791        C883   1.497       .  S
C792        C914   1.493       .  S
C793        C934   1.494       .  S
C794        C874   1.492       .  S
N795        C799   1.360       .  A
C796        C963   1.487       .  S
C797        C798   1.371   1_554  A
C798        C799   1.383       .  A
C798        H801   1.083       .  S
C799        C954   1.478       .  S
N802        C803   1.367       .  A
C803        C804   1.384       .  A
C803        C823   1.500       .  S
C804        C805   1.374   1_556  A
C804        H807   1.082       .  S
C806        C843   1.496       .  S
N809        C810   1.375       .  A
C810        C811   1.384       .  A
C810        C903   1.496       .  S
C811        C812   1.358   1_556  A
C811        H814   1.082       .  S
C813        C923   1.482       .  S
N816        C820   1.363   1_556  A
N816        C817   1.361       .  A
C817        C818   1.375       .  A
C817        C863   1.472       .  S
C818        C819   1.362       .  A
C818        H821   1.082       .  S
C819        C820   1.385   1_556  A
C819        H822   1.081       .  S
C823        C824   1.413       .  A
C823        C828   1.407       .  A
C824        C825   1.404       .  A
C824       Br840   1.918       .  S
C825        C826   1.404       .  A
C825        H829   1.083       .  S
C826        C827   1.408       .  A
C826        C830   1.489       .  S
C827        C828   1.401       .  A
C827       Br839   1.921       .  S
C828        H831   1.079       .  S
C830        C832   1.401       .  A
C830        C836   1.408       .  A
C832        C833   1.404       .  A
C832        H837   1.084       .  S
C833        C834   1.422       .  A
C833       Br841   1.922       .  S
C834        C835   1.410       .  A
C835        C836   1.402       .  A
C835        H838   1.083       .  S
C836       Br842   1.919       .  S
C843        C844   1.415       .  A
C843        C848   1.410       .  A
C844        C845   1.396       .  A
C844       Br860   1.904       .  S
C845        C846   1.396       .  A
C845        H849   1.084       .  S
C846        C847   1.407       .  A
C846        C850   1.483       .  S
C847        C848   1.408       .  A
C847       Br859   1.915       .  S
C848        H851   1.083       .  S
C850        C852   1.400       .  A
C850        C856   1.407       .  A
C852        C853   1.403       .  A
C852        H857   1.084       .  S
C853        C854   1.423       .  A
C853       Br861   1.922       .  S
C854        C855   1.409       .  A
C855        C856   1.401       .  A
C855        H858   1.083       .  S
C856       Br862   1.918       .  S
C863        C864   1.407       .  A
C863        C868   1.403       .  A
C864        C865   1.397       .  A
C864       Br880   1.920       .  S
C865        C866   1.402       .  A
C865        H869   1.084       .  S
C866        C867   1.408       .  A
C866        C870   1.477       .  S
C867        C868   1.400       .  A
C867       Br879   1.918       .  S
C868        H871   1.084       .  S
C870        C872   1.402       .  A
C870        C876   1.401       .  A
C872        C873   1.401       .  A
C872        H877   1.084       .  S
C873        C874   1.417       .  A
C873       Br881   1.921       .  S
C874        C875   1.414       .  A
C875        C876   1.397       .  A
C875        H878   1.083       .  S
C876       Br882   1.919       .  S
C883        C884   1.417       .  A
C883        C888   1.408       .  A
C884        C885   1.400       .  A
C884       Br900   1.914       .  S
C885        C886   1.401       .  A
C885        H889   1.084       .  S
C886        C887   1.413       .  A
C886        C890   1.496       .  S
C887        C888   1.408       .  A
C887       Br899   1.919       .  S
C888        H891   1.083       .  S
C890        C892   1.403       .  A
C890        C896   1.415       .  A
C892        H897   1.083       .  S
C893       Br901   1.911       .  S
C894        C895   1.403       .  A
C895        C896   1.407       .  A
C895        H898   1.083       .  S
C896       Br902   1.918       .  S
C903        C904   1.416       .  A
C903        C908   1.405       .  A
C904        C905   1.403       .  A
C904       Br920   1.920       .  S
C905        C906   1.402       .  A
C905        H909   1.083       .  S
C906        C907   1.409       .  A
C906        C910   1.488       .  S
C907        C908   1.402       .  A
C907       Br919   1.918       .  S
C908        H911   1.078       .  S
C910        C912   1.403       .  A
C910        C916   1.409       .  A
C912        C913   1.407       .  A
C912        H917   1.083       .  S
C913        C914   1.419       .  A
C913       Br921   1.920       .  S
C914        C915   1.407       .  A
C915        C916   1.398       .  A
C915        H918   1.084       .  S
C916       Br922   1.920       .  S
C923        C924   1.411       .  A
C923        C928   1.407       .  A
C924        C925   1.398       .  A
C924       Br940   1.913       .  S
C925        C926   1.402       .  A
C925        H929   1.084       .  S
C926        C927   1.409       .  A
C926        C930   1.488       .  S
C927        C928   1.404       .  A
C927       Br939   1.917       .  S
C930        C932   1.400       .  A
C930        C936   1.412       .  A
C932        C933   1.401       .  A
C932        H937   1.084       .  S
C933        C934   1.420       .  A
C933       Br941   1.922       .  S
C934        C935   1.407       .  A
C935        C936   1.403       .  A
C935        H938   1.083       .  S
C936       Br942   1.920       .  S
C943        C944   1.413       .  A
C943        C948   1.405       .  A
C944        C945   1.406       .  A
C944       Br960   1.919       .  S
C945        C946   1.407       .  A
C945        H949   1.083       .  S
C946        C947   1.410       .  A
C946        C950   1.489       .  S
C947        C948   1.396       .  A
C947       Br959   1.922       .  S
C948        H951   1.084       .  S
C950        C952   1.407       .  A
C950        C956   1.412       .  A
C952        C953   1.401       .  A
C952        H957   1.083       .  S
C953        C954   1.406       .  A
C953       Br961   1.918       .  S
C954        C955   1.404       .  A
C955        C956   1.400       .  A
C955        H958   1.084       .  S
C956       Br962   1.920       .  S
C963        C964   1.410       .  A
C963        C968   1.404       .  A
C964        C965   1.398       .  A
C964       Br980   1.916       .  S
C965        C966   1.404       .  A
C965        H969   1.083       .  S
C966        C967   1.414       .  A
C966        C970   1.491       .  S
C967        C968   1.399       .  A
C967       Br979   1.920       .  S
C968        H971   1.083       .  S
C970        C972   1.400       .  A
C970        C976   1.411       .  A
C972        C973   1.394       .  A
C972        H977   1.084       .  S
C973        C974   1.419       .  A
C973       Br981   1.918       .  S
C974        C975   1.410       .  A
C975        C976   1.406       .  A
C975        H978   1.083       .  S
C976       Br982   1.919       .  S
C983        C984   1.422       .  A
C983        C988   1.410       .  A
C984        C985   1.411       .  A
C984      Br1000   1.920       .  S
C985        C986   1.406       .  A
C985        H989   1.083       .  S
C986        C987   1.411       .  A
C986        C990   1.499       .  S
C987        C988   1.401       .  A
C987       Br999   1.922       .  S
C988        H991   1.082       .  S
C990        C992   1.403       .  A
C990        C996   1.414       .  A
C992        C993   1.403       .  A
C992        H997   1.083       .  S
C993        C994   1.415       .  A
C993      Br1001   1.921       .  S
C994        C995   1.404       .  A
C995        C996   1.406       .  A
C995        H998   1.081       .  S
C996      Br1002   1.918       .  S
C1003      C1004   1.424       .  A
C1003      C1008   1.407       .  A
C1004      C1005   1.401       .  A
C1004     Br1020   1.923       .  S
C1005      C1006   1.396       .  A
C1005      H1009   1.084       .  S
C1006      C1007   1.409       .  A
C1006      C1010   1.481       .  S
C1007      C1008   1.401       .  A
C1007     Br1019   1.919       .  S
C1008      H1011   1.083       .  S
C1010      C1012   1.404       .  A
C1010      C1016   1.406       .  A
C1012      C1013   1.404       .  A
C1012      H1017   1.083       .  S
C1013      C1014   1.411       .  A
C1013     Br1021   1.918       .  S
C1014      C1015   1.404       .  A
C1015      C1016   1.397       .  A
C1015      H1018   1.083       .  S
C1016     Br1022   1.918       .  S
C1023      C1024   1.410       .  A
C1023      C1028   1.400       .  A
C1024      C1025   1.411       .  A
C1024     Br1040   1.916       .  S
C1025      C1026   1.408       .  A
C1025      H1029   1.083       .  S
C1026      C1027   1.410       .  A
C1026      C1030   1.486       .  S
C1027      C1028   1.390       .  A
C1027     Br1039   1.923       .  S
C1028      H1031   1.083       .  S
C1030      C1032   1.401       .  A
C1030      C1036   1.408       .  A
C1032      C1033   1.397       .  A
C1032      H1037   1.084       .  S
C1033      C1034   1.414       .  A
C1033     Br1041   1.916       .  S
C1034      C1035   1.407       .  A
C1035      C1036   1.405       .  A
C1035      H1038   1.079       .  S
C1036     Br1042   1.917       .  S
C1043      C1044   1.418       .  A
C1043      C1048   1.408       .  A
C1044      C1045   1.403       .  A
C1044     Br1060   1.919       .  S
C1045      C1046   1.403       .  A
C1045      H1049   1.084       .  S
C1046      C1047   1.409       .  A
C1046      C1050   1.487       .  S
C1047      C1048   1.398       .  A
C1047     Br1059   1.921       .  S
C1048      H1051   1.083       .  S
C1050      C1052   1.405       .  A
C1050      C1056   1.411       .  A
C1052      C1053   1.404       .  A
C1052      H1057   1.083       .  S
C1053      C1054   1.414       .  A
C1053     Br1061   1.916       .  S
C1054      C1055   1.405       .  A
C1055      C1056   1.396       .  A
C1055      H1058   1.084       .  S
C1056     Br1062   1.922       .  S
C1063      C1064   1.422       .  A
C1063      C1068   1.411       .  A
C1064      C1065   1.402       .  A
C1064     Br1080   1.922       .  S
C1065      C1066   1.401       .  A
C1065      H1069   1.084       .  S
C1066      C1067   1.410       .  A
C1066      C1070   1.495       .  S
C1067      C1068   1.408       .  A
C1067     Br1079   1.919       .  S
C1068      H1071   1.083       .  S
C1070      C1072   1.406       .  A
C1070      C1076   1.412       .  A
C1072      C1073   1.404       .  A
C1072      H1077   1.083       .  S
C1073      C1074   1.412       .  A
C1073     Br1081   1.918       .  S
C1074      C1075   1.406       .  A
C1075      C1076   1.404       .  A
C1075      H1078   1.083       .  S
C1076     Br1082   1.920       .  S
C1083      C1084   1.414       .  A
C1083      C1088   1.407       .  A
C1084      C1085   1.412       .  A
C1084     Br1100   1.918   1_455  S
C1085      C1086   1.408       .  A
C1085      H1089   1.083       .  S
C1086      C1087   1.408       .  A
C1086      C1090   1.491       .  S
C1087      C1088   1.395       .  A
C1087     Br1099   1.922       .  S
C1088      H1091   1.084       .  S
C1090      C1092   1.404       .  A
C1090      C1096   1.410       .  A
C1092      C1093   1.401       .  A
C1092      H1097   1.083       .  S
C1093      C1094   1.412       .  A
C1093     Br1101   1.918       .  S
C1094      C1095   1.407       .  A
C1095      C1096   1.405       .  A
C1095      H1098   1.083       .  S
C1096     Br1102   1.918       .  S
C1103      C1104   1.410       .  A
C1103      C1108   1.407   1_655  A
C1104      C1105   1.399   1_655  A
C1104     Br1120   1.919       .  S
C1105      C1106   1.407       .  A
C1105      H1109   1.083       .  S
C1106      C1107   1.408       .  A
C1106      C1110   1.485       .  S
C1107      C1108   1.396       .  A
C1107     Br1119   1.921       .  S
C1108      H1111   1.083       .  S
C1110      C1112   1.406       .  A
C1110      C1116   1.408       .  A
C1112      C1113   1.401       .  A
C1112      H1117   1.084       .  S
C1113      C1114   1.411       .  A
C1113     Br1121   1.919       .  S
C1114      C1115   1.406       .  A
C1115      C1116   1.393       .  A
C1115      H1118   1.082       .  S
C1116     Br1122   1.923       .  S
C1123      C1124   1.412       .  A
C1123      C1128   1.407       .  A
C1124      C1125   1.404       .  A
C1124     Br1140   1.919       .  S
C1125      C1126   1.406       .  A
C1125      H1129   1.083       .  S
C1126      C1127   1.411       .  A
C1126      C1130   1.495       .  S
C1127      C1128   1.401       .  A
C1127     Br1139   1.920       .  S
C1128      H1131   1.081       .  S
C1130      C1132   1.403       .  A
C1130      C1136   1.416       .  A
C1132      C1133   1.402       .  A
C1132      H1137   1.084       .  S
C1133      C1134   1.416       .  A
C1133     Br1141   1.921       .  S
C1134      C1135   1.403   1_455  A
C1135      C1136   1.406   1_655  A
C1135      H1138   1.084       .  S
C1136     Br1142   1.921   1_455  S
C1143      C1144   1.413       .  A
C1143      C1148   1.406       .  A
C1144      C1145   1.398       .  A
C1144     Br1160   1.922       .  S
C1145      C1146   1.403       .  A
C1145      H1149   1.083       .  S
C1146      C1147   1.409       .  A
C1146      C1150   1.484       .  S
C1147      C1148   1.400       .  A
C1147     Br1159   1.918       .  S
C1148      H1151   1.083       .  S
C1150      C1152   1.403       .  A
C1150      C1156   1.409       .  A
C1152      C1153   1.399       .  A
C1152      H1157   1.084       .  S
C1153      C1154   1.414       .  A
C1153     Br1161   1.923       .  S
C1154      C1155   1.405       .  A
C1155      C1156   1.401       .  A
C1155      H1158   1.083       .  S
C1156     Br1162   1.919       .  S
C1163      C1164   1.413       .  A
C1163      C1168   1.404       .  A
C1164      C1165   1.400       .  A
C1164     Br1180   1.917       .  S
C1165      C1166   1.406       .  A
C1165      H1169   1.082       .  S
C1166      C1167   1.417       .  A
C1166      C1170   1.501       .  S
C1167      C1168   1.404       .  A
C1167     Br1179   1.921       .  S
C1168      H1171   1.083       .  S
C1170      C1172   1.402       .  A
C1170      C1176   1.416       .  A
C1172      C1173   1.395       .  A
C1172      H1177   1.082       .  S
C1173      C1174   1.418       .  A
C1173     Br1181   1.917       .  S
C1174      C1175   1.406       .  A
C1175      C1176   1.407       .  A
C1175      H1178   1.080       .  S
C1176     Br1182   1.920       .  S
C1183      C1184   1.415       .  A
C1183      C1188   1.402       .  A
C1184      C1185   1.392       .  A
C1184     Br1200   1.908       .  S
C1185      C1186   1.393       .  A
C1185      H1189   1.084       .  S
C1186      C1187   1.410       .  A
C1186      C1190   1.469       .  S
C1187      C1188   1.398       .  A
C1187     Br1199   1.919       .  S
C1188      H1191   1.084       .  S
C1190      C1192   1.394       .  A
C1190      C1196   1.403       .  A
C1192      C1193   1.392       .  A
C1192      H1197   1.084       .  S
C1193      C1194   1.426       .  A
C1194      C1195   1.409       .  A
C1195      C1196   1.397       .  A
C1195      H1198   1.084       .  S
C1196     Br1202   1.917       .  S
C1203      C1204   1.413       .  A
C1203      C1208   1.410       .  A
C1204      C1205   1.399       .  A
C1204     Br1220   1.916       .  S
C1205      C1206   1.405       .  A
C1205      H1209   1.084       .  S
C1206      C1207   1.407       .  A
C1206      C1210   1.486       .  S
C1207      C1208   1.399       .  A
C1207     Br1219   1.915       .  S
C1208      H1211   1.083       .  S
C1210      C1212   1.399       .  A
C1210      C1216   1.412       .  A
C1212      C1213   1.389       .  A
C1212      H1217   1.084       .  S
C1213      C1214   1.412       .  A
C1213     Br1221   1.918       .  S
C1214      C1215   1.408       .  A
C1215      C1216   1.408       .  A
C1215      H1218   1.083       .  S
C1216     Br1222   1.917       .  S
C1223      C1224   1.410       .  A
C1223      C1228   1.407       .  A
C1224      C1225   1.400       .  A
C1224     Br1240   1.918       .  S
C1225      C1226   1.404       .  A
C1225      H1229   1.083       .  S
C1226      C1227   1.409       .  A
C1226      C1230   1.489       .  S
C1227      C1228   1.403       .  A
C1227     Br1239   1.919       .  S
C1228      H1231   1.082       .  S
C1230      C1232   1.405       .  A
C1230      C1236   1.405       .  A
C1232      C1233   1.404       .  A
C1232      H1237   1.084       .  S
C1233      C1234   1.419       .  A
C1233     Br1241   1.922       .  S
C1234      C1235   1.412       .  A
C1235      C1236   1.401       .  A
C1235      H1238   1.083       .  S
C1236     Br1242   1.918       .  S
C1243      C1244   1.423       .  A
C1243      C1248   1.406       .  A
C1244      C1245   1.401       .  A
C1244     Br1260   1.924       .  S
C1245      C1246   1.397       .  A
C1245      H1249   1.084       .  S
C1246      C1247   1.407       .  A
C1246      C1250   1.476       .  S
C1247      C1248   1.397       .  A
C1247     Br1259   1.919       .  S
C1248      H1251   1.083       .  S
C1250      C1252   1.403       .  A
C1250      C1256   1.402       .  A
C1252      C1253   1.403       .  A
C1252      H1257   1.083       .  S
C1253      C1254   1.412       .  A
C1253     Br1261   1.919       .  S
C1254      C1255   1.408       .  A
C1255      C1256   1.394       .  A
C1255      H1258   1.078       .  S
C1256     Br1262   1.919       .  S
C1263      C1264   1.414       .  A
C1263      C1268   1.409       .  A
C1264      C1265   1.400       .  A
C1264     Br1280   1.921       .  S
C1265      C1266   1.404       .  A
C1265      H1269   1.083       .  S
C1266      C1267   1.407       .  A
C1266      C1270   1.486       .  S
C1267      C1268   1.400       .  A
C1267     Br1279   1.920       .  S
C1268      H1271   1.083       .  S
C1270      C1272   1.406       .  A
C1270      C1276   1.413       .  A
C1272      C1273   1.403       .  A
C1272      H1277   1.083       .  S
C1273      C1274   1.411       .  A
C1273     Br1281   1.919       .  S
C1274      C1275   1.402       .  A
C1275      C1276   1.395       .  A
C1275      H1278   1.083       .  S
C1276     Br1282   1.923       .  S
C1283      C1284   1.410       .  A
C1283      C1288   1.405       .  A
C1284      C1285   1.402       .  A
C1284     Br1300   1.919       .  S
C1285      C1286   1.406       .  A
C1285      H1289   1.083       .  S
C1286      C1287   1.413       .  A
C1286      C1290   1.497       .  S
C1287      C1288   1.404       .  A
C1287     Br1299   1.919       .  S
C1288      H1291   1.079       .  S
C1290      C1292   1.407       .  A
C1290      C1296   1.410       .  A
C1292      C1293   1.404       .  A
C1292      H1297   1.083       .  S
C1293      C1294   1.418       .  A
C1293     Br1301   1.923   1_565  S
C1294      C1295   1.410       .  A
C1295      C1296   1.402       .  A
C1295      H1298   1.083       .  S
C1296     Br1302   1.920       .  S
