geometry optimzed in LAMMPS
_audit_creation_date              2020-11-30 
_audit_creation_method            'lammps2cif' 
_symmetry_space_group_name_H-M    'P1' 
_symmetry_Int_Tables_number       1 
_symmetry_cell_setting            triclinic 
loop_ 
_symmetry_equiv_pos_as_xyz 
  x,y,z 
_cell_length_a                    25.43721347360328 
_cell_length_b                    25.420237482056397 
_cell_length_c                    25.460776284709773 
_cell_angle_alpha                 90.28869773025923 
_cell_angle_beta                  89.53725845658909 
_cell_angle_gamma                 89.8635500703251 
loop_ 
_atom_site_label 
_atom_site_type_symbol 
_atom_site_fract_x 
_atom_site_fract_y 
_atom_site_fract_z 
_atom_site_charge 
C1          C  0.72861999  0.73089311  0.00388195     0.03410
C2          C  0.74379058  0.67748514  0.00642316    -0.12740
C3          C  0.70628755  0.63767226  0.00202059     0.00910
C4          C  0.65319012  0.65090066  0.99829913    -0.11260
C5          C  0.63696476  0.70343086  0.99648919     0.03400
C6          C  0.67477720  0.74342769  0.99844588    -0.10690
H7          H  0.78477939  0.66664992  0.01023308     0.09000
H8          H  0.62419533  0.61975664  0.99595233     0.06530
H9          H  0.66222755  0.78378522  0.99366259     0.06370
C10         C  0.73143704  0.32251930  0.99991384     0.03410
C11         C  0.74625991  0.37594189  0.99958149    -0.12740
C12         C  0.70800864  0.41541610  0.99821966     0.00910
C13         C  0.65488626  0.40194267  0.00054530    -0.11260
C14         C  0.63924449  0.34939097  0.00417654     0.03400
C15         C  0.67746983  0.30957627  0.00224713    -0.10690
H16         H  0.78729500  0.38706017  0.00009168     0.09000
H17         H  0.62540661  0.43283321  0.00010389     0.06530
H18         H  0.66515449  0.26883186  0.00323975     0.06370
C19         C  0.32312057  0.31904726  0.00644715     0.03410
C20         C  0.37727687  0.30646331  0.00613364    -0.12740
C21         C  0.41510270  0.34651018  0.00624794     0.00910
C22         C  0.39891198  0.39899810  0.00298561    -0.11260
C23         C  0.34566657  0.41221555  0.00134393     0.03400
C24         C  0.30788244  0.37254098  0.00494064    -0.10690
H25         H  0.39029427  0.26595033  0.00595762     0.09000
H26         H  0.42813027  0.43000025  0.00177680     0.06530
H27         H  0.26673632  0.38357088  0.00568072     0.06370
C28         C  0.32092255  0.72807203  0.00236183     0.03410
C29         C  0.37515286  0.73994475  0.00267614    -0.12740
C30         C  0.41269192  0.69961940  0.99886770     0.00910
C31         C  0.39602600  0.64726469  0.99895460    -0.11260
C32         C  0.34266700  0.63455920  0.99913675     0.03400
C33         C  0.30509503  0.67484916  0.00069555    -0.10690
H34         H  0.38836593  0.78030999  0.00482424     0.09000
H35         H  0.42494947  0.61585688  0.99786929     0.06530
H36         H  0.26381363  0.66467822  0.99897303     0.06370
C37         C  0.73043112  0.02580115  0.70453537     0.03410
C38         C  0.67671253  0.03301156  0.71758213    -0.12740
C39         C  0.63828791  0.03216671  0.67832736     0.00910
C40         C  0.65359260  0.02440467  0.62598326    -0.11260
C41         C  0.70635214  0.01681095  0.61230611     0.03400
C42         C  0.74459938  0.01689554  0.65148630    -0.10690
H43         H  0.66477824  0.04043881  0.75786974     0.09000
H44         H  0.62408702  0.02437229  0.59545120     0.06530
H45         H  0.78503587  0.00912254  0.64042251     0.06370
C46         C  0.32237617  0.02271219  0.70318427     0.03410
C47         C  0.37604858  0.02863478  0.71571150    -0.12740
C48         C  0.41416407  0.03237310  0.67570977     0.00910
C49         C  0.39837320  0.02975168  0.62320060    -0.11260
C50         C  0.34533448  0.02514255  0.61007002     0.03400
C51         C  0.30751958  0.02057008  0.64994492    -0.10690
H52         H  0.38806823  0.03241599  0.75624044     0.09000
H53         H  0.42757531  0.03195736  0.59203797     0.06530
H54         H  0.26651636  0.01664464  0.63944339     0.06370
C55         C  0.32021762  0.02326517  0.29464313     0.03410
C56         C  0.30434926  0.02337345  0.34795746    -0.12740
C57         C  0.34189442  0.02458202  0.38781560     0.00910
C58         C  0.39526190  0.02375616  0.37468045    -0.11260
C59         C  0.41192845  0.02264809  0.32222160     0.03400
C60         C  0.37443228  0.02375738  0.28219451    -0.10690
H61         H  0.26302076  0.02296459  0.35855033     0.09000
H62         H  0.42421325  0.02398104  0.40575075     0.06530
H63         H  0.38761398  0.02472838  0.24170356     0.06370
C64         C  0.72835824  0.02791761  0.29708357     0.03410
C65         C  0.74381240  0.02367728  0.35006544    -0.12740
C66         C  0.70600194  0.02079675  0.39019311     0.00910
C67         C  0.65272759  0.02207391  0.37751962    -0.11260
C68         C  0.63638279  0.02478445  0.32530872     0.03400
C69         C  0.67418882  0.02969376  0.28525371    -0.10690
H70         H  0.78502695  0.02086776  0.36008273     0.09000
H71         H  0.62358188  0.01994959  0.40875887     0.06530
H72         H  0.66124982  0.03368375  0.24509321     0.06370
C73         C  0.02002558  0.31973425  0.70279722     0.03410
C74         C  0.01636954  0.37374463  0.71606000    -0.12740
C75         C  0.01846116  0.41226231  0.67676940     0.00910
C76         C  0.02453726  0.39666073  0.62427626    -0.11260
C77         C  0.02822732  0.34355057  0.61050796     0.03400
C78         C  0.02637536  0.30515102  0.64960554    -0.10690
H79         H  0.01066815  0.38578339  0.75657923     0.09000
H80         H  0.02595817  0.42616453  0.59365480     0.06530
H81         H  0.03084262  0.26422803  0.63846538     0.06370
C82         C  0.02770703  0.72909235  0.70322874     0.03410
C83         C  0.02469687  0.67512425  0.71593854    -0.12740
C84         C  0.02242457  0.63694101  0.67591761     0.00910
C85         C  0.02525672  0.65294676  0.62345499    -0.11260
C86         C  0.02726472  0.70613947  0.61017618     0.03400
C87         C  0.02953974  0.74418131  0.64998356    -0.10690
H88         H  0.02189787  0.66307643  0.75662044     0.09000
H89         H  0.02435066  0.62370465  0.59231871     0.06530
H90         H  0.03150705  0.78537953  0.63947880     0.06370
C91         C  0.02344829  0.32180124  0.29565304     0.03410
C92         C  0.02452418  0.37552077  0.28217010    -0.12740
C93         C  0.02854578  0.41412644  0.32149334     0.00910
C94         C  0.03096239  0.39898067  0.37418138    -0.11260
C95         C  0.02841383  0.34594719  0.38816048     0.03400
C96         C  0.02400821  0.30744427  0.34901271    -0.10690
H97         H  0.02418043  0.38717719  0.24129653     0.09000
H98         H  0.03440741  0.42876154  0.40462063     0.06530
H99         H  0.02181284  0.26641978  0.36011216     0.06370
C100        C  0.02625751  0.73014436  0.29481743     0.03410
C101        C  0.02452583  0.74506316  0.34826837    -0.12740
C102        C  0.02483733  0.70678068  0.38763075     0.00910
C103        C  0.02728690  0.65354616  0.37372633    -0.11260
C104        C  0.02964129  0.63801600  0.32102002     0.03400
C105        C  0.02914535  0.67623054  0.28156984    -0.10690
H106        H  0.02183037  0.78621411  0.35928430     0.09000
H107        H  0.02749560  0.62390323  0.40423399     0.06530
H108        H  0.03230644  0.66392443  0.24089456     0.06370
O109        O  0.93936899  0.87551248  0.00062404    -0.79850
O110        O  0.93867691  0.17461985  0.99825793    -0.81400
O111        O  0.87592053  0.02487416  0.08790380    -0.78420
O112        O  0.87495116  0.02528417  0.91582132    -0.76810
O113        O  0.93806317  0.02627501  0.85137362    -0.78600
O114        O  0.93952195  0.02744168  0.15089863    -0.79530
O115        O  0.87528396  0.11094393  0.00212089    -0.80860
O116        O  0.87565286  0.93909148  0.00313061    -0.81150
Eu117      Eu  0.91901874  0.02501641  0.00132857     2.39200
O118        O  0.97176727  0.07828262  0.94729003    -0.88660
O119        O  0.97233493  0.97209107  0.05442855    -0.92260
C120        C  0.89092578  0.89067296  0.00205967     1.02430
C121        C  0.89035152  0.15929949  0.00021659     1.02250
C122        C  0.89108831  0.02654408  0.13613413     1.02190
C123        C  0.88966652  0.02597172  0.86719145     1.00050
H124        H  0.95011156  0.10124214  0.07578307     0.29800
O125        O  0.97213599  0.07914929  0.05381610    -1.01040
H126        H  0.94994776  0.94931133  0.92529779     0.29830
O127        O  0.97189493  0.97136811  0.94692585    -1.03580
O128        O  0.11211087  0.17441203  0.00151350    -0.80810
O129        O  0.11155829  0.87494607  0.00123772    -0.80350
O130        O  0.02667924  0.11330941  0.14917302    -0.78790
O131        O  0.02176958  0.11139293  0.84975327    -0.82130
O132        O  0.02488658  0.93787226  0.85028048    -0.79980
O133        O  0.02678626  0.94001895  0.15000412    -0.78630
O134        O  0.17569436  0.02377340  0.08510093    -0.80150
O135        O  0.17536381  0.02293429  0.91256303    -0.82070
O136        O  0.11205830  0.02784399  0.14906614    -0.78810
O137        O  0.11163590  0.02499792  0.84958096    -0.81490
O138        O  0.02262109  0.17644540  0.08542899    -0.77220
O139        O  0.02395023  0.87593137  0.08656611    -0.77260
O140        O  0.02857660  0.87468360  0.91400030    -0.76900
O141        O  0.02434899  0.17504695  0.91349760    -0.80400
O142        O  0.17578333  0.11068477  0.00284366    -0.79820
O143        O  0.17532616  0.93820404  0.99818696    -0.78150
Eu144      Eu  0.02535878  0.13191820  0.99962918     2.39770
Eu145      Eu  0.02554477  0.91865419  0.00019218     2.39570
Eu146      Eu  0.02579179  0.02624906  0.10669592     2.38400
Eu147      Eu  0.02495728  0.02495875  0.89315931     2.39880
Eu148      Eu  0.13213187  0.02475397  0.99915313     2.39790
O149        O  0.07848043  0.97168785  0.94610958    -0.92570
O150        O  0.07893061  0.07898393  0.05261554    -0.91460
C151        C  0.16055121  0.15914748  0.00296824     1.02600
C152        C  0.15998666  0.88987145  0.00003726     1.01320
C153        C  0.02422976  0.16157006  0.13377610     1.00710
C154        C  0.02243114  0.15994014  0.86506432     1.02730
C155        C  0.02719637  0.88953981  0.86561323     1.01640
C156        C  0.02553409  0.89147150  0.13488744     1.00490
C157        C  0.16045606  0.02600620  0.13357367     1.00550
C158        C  0.16009479  0.02379928  0.86434096     1.03160
H159        H  0.10089146  0.95013792  0.07499724     0.30540
O160        O  0.07900813  0.97197732  0.05321216    -1.04730
H161        H  0.10100422  0.10035682  0.92381272     0.32590
O162        O  0.07909090  0.07844695  0.94576382    -1.07290
C163        C  0.02593776  0.77103955  0.25321812    -0.05180
C164        C  0.05747447  0.81604192  0.25883228    -0.32610
C165        C  0.05731918  0.85573524  0.22092301     0.36640
C166        C  0.02599226  0.85051616  0.17584836    -0.05540
C167        C  0.99478569  0.80547471  0.16987064    -0.32510
C168        C  0.99421396  0.76611863  0.20822450     0.36540
H169        H  0.08277788  0.82031556  0.29260652     0.16910
O170        O  0.08971557  0.89835196  0.22716423    -0.60010
H171        H  0.96981808  0.80126613  0.13581887     0.16930
O172        O  0.96036718  0.72451442  0.20278918    -0.60110
H173        H  0.97479470  0.70309180  0.17333651     0.43920
H174        H  0.07031568  0.92262906  0.25103349     0.43880
C175        C  0.03210293  0.47066972  0.30901868    -0.05180
C176        C  0.07764615  0.49808722  0.32321275    -0.32610
C177        C  0.07851820  0.55300719  0.32297264     0.36640
C178        C  0.03333550  0.58134556  0.30870952    -0.05540
C179        C  0.98884723  0.55406110  0.29113551    -0.32510
C180        C  0.98806318  0.49884470  0.29113892     0.36540
H181        H  0.11167843  0.47679545  0.33724444     0.16910
O182        O  0.12243494  0.57875924  0.34035115    -0.60010
H183        H  0.95360771  0.57554382  0.28078558     0.16930
O184        O  0.94256169  0.47303530  0.27855670    -0.60110
H185        H  0.94550084  0.46562758  0.24037469     0.43920
H186        H  0.14231205  0.58809561  0.30807011     0.43880
C187        C  0.02360047  0.28062834  0.25413831    -0.05180
C188        C  0.98822650  0.28386269  0.21215352    -0.32610
C189        C  0.98794872  0.24530580  0.17263406     0.36640
C190        C  0.02344473  0.20276678  0.17469903    -0.05540
C191        C  0.05877297  0.19956832  0.21646727    -0.32510
C192        C  0.05938108  0.23818236  0.25578626     0.36540
H193        H  0.96031813  0.31605578  0.21034042     0.16910
O194        O  0.95233287  0.24912496  0.13264545    -0.60010
H195        H  0.08683661  0.16757749  0.21801102     0.16930
O196        O  0.09700996  0.23571836  0.29404471    -0.60110
H197        H  0.08675771  0.20574538  0.31668860     0.43920
H198        H  0.92190402  0.22749501  0.14392493     0.43880
C199        C  0.02229544  0.72026791  0.55425166    -0.05180
C200        C  0.06558847  0.73997148  0.52612944    -0.32610
C201        C  0.06521154  0.74044642  0.47096757     0.36640
C202        C  0.02134947  0.72071955  0.44385513    -0.05540
C203        C  0.97664114  0.70521058  0.47219095    -0.32510
C204        C  0.97674524  0.70526845  0.52696438     0.36540
H205        H  0.10093291  0.75132764  0.54671886     0.16910
O206        O  0.10961920  0.75523865  0.44403349    -0.60010
H207        H  0.94271823  0.68992791  0.45168980     0.16930
O208        O  0.93366275  0.68641007  0.55352732    -0.60110
H209        H  0.91429096  0.71812459  0.56578314     0.43920
H210        H  0.10419803  0.79293228  0.43577177     0.43880
C211        C  0.02681338  0.76984703  0.74533737    -0.05180
C212        C  0.06025473  0.76517068  0.78873865    -0.32610
C213        C  0.06079235  0.80383391  0.82819690     0.36640
C214        C  0.02759755  0.84814461  0.82464622    -0.05540
C215        C  0.99397992  0.85269990  0.78151362    -0.32510
C216        C  0.99279278  0.81371044  0.74255221     0.36540
H217        H  0.08670051  0.73185407  0.79161659     0.16910
O218        O  0.09463856  0.79842841  0.86951409    -0.60010
H219        H  0.96760933  0.88609516  0.77861919     0.16930
O220        O  0.95742825  0.81841746  0.70244838    -0.60110
H221        H  0.92645091  0.79753988  0.71364499     0.43920
H222        H  0.12665553  0.81814496  0.85915294     0.43880
C223        C  0.03224785  0.32970910  0.55440600    -0.05180
C224        C  0.98657623  0.31588725  0.52712924    -0.32610
C225        C  0.98593471  0.31683757  0.47212389     0.36640
C226        C  0.03129443  0.33200914  0.44415725    -0.05540
C227        C  0.07793291  0.34203555  0.47140328    -0.32510
C228        C  0.07866781  0.34070912  0.52624965     0.36540
H229        H  0.95043816  0.30819005  0.54854184     0.16910
O230        O  0.93958697  0.30817101  0.44638764    -0.60010
H231        H  0.11300409  0.35389127  0.45015195     0.16930
O232        O  0.12372385  0.35440090  0.55212442    -0.60110
H233        H  0.14103487  0.32055728  0.56070546     0.43920
H234        H  0.93970905  0.27008081  0.43781564     0.43880
C235        C  0.01269887  0.46918762  0.68840591    -0.05180
C236        C  0.97384419  0.49744360  0.66179851    -0.32610
C237        C  0.97454173  0.55235116  0.66081796     0.36640
C238        C  0.01454026  0.58018960  0.68696137    -0.05540
C239        C  0.05062563  0.55218394  0.71770395    -0.32510
C240        C  0.04977598  0.49684231  0.71867305     0.36540
H241        H  0.94444911  0.47669095  0.63917021     0.16910
O242        O  0.93667516  0.57869579  0.63309712    -0.60010
H243        H  0.08153179  0.57299396  0.73811117     0.16930
O244        O  0.08813478  0.47027038  0.74527818    -0.60110
H245        H  0.07415730  0.46640708  0.78152230     0.43920
H246        H  0.94388634  0.57060776  0.59555331     0.43880
C247        C  0.01879442  0.27884229  0.74453469    -0.05180
C248        C  0.04669453  0.28729134  0.79114214    -0.32610
C249        C  0.04713813  0.24955592  0.83089564     0.36640
C250        C  0.02089980  0.20126573  0.82413776    -0.05540
C251        C  0.99259813  0.19276399  0.77776435    -0.32510
C252        C  0.99082799  0.23123273  0.73843521     0.36540
H253        H  0.06891880  0.32316801  0.79670035     0.16910
O254        O  0.07512292  0.25962161  0.87546956    -0.60010
H255        H  0.97084250  0.15655807  0.77236794     0.16930
O256        O  0.95947444  0.22308418  0.69554389    -0.60110
H257        H  0.97616803  0.19379720  0.67557988     0.43920
H258        H  0.05153628  0.28154456  0.89781554     0.43880
C259        C  0.76904292  0.02859289  0.25459341    -0.05180
C260        C  0.81579238  0.05706032  0.26203957    -0.32610
C261        C  0.85612500  0.05610671  0.22431498     0.36640
C262        C  0.84972225  0.02753113  0.17726954    -0.05540
C263        C  0.80287948  0.99968534  0.16930523    -0.32510
C264        C  0.76298368  0.99953977  0.20755430     0.36540
H265        H  0.82121318  0.08029932  0.29735413     0.16910
O266        O  0.90080874  0.08488262  0.23300626    -0.60010
H267        H  0.79764187  0.97672066  0.13375155     0.16930
O268        O  0.71984164  0.96817896  0.19993268    -0.60110
H269        H  0.70003947  0.98474822  0.17093195     0.43920
H270        H  0.92308964  0.06240541  0.25554142     0.43880
C271        C  0.46893541  0.01832415  0.31121913    -0.05180
C272        C  0.49654426  0.97676694  0.33424583    -0.32610
C273        C  0.55131276  0.97703500  0.33590967     0.36640
C274        C  0.57960384  0.01931518  0.31405371    -0.05540
C275        C  0.55229884  0.05865171  0.28679193    -0.32510
C276        C  0.49705274  0.05824899  0.28515077     0.36540
H277        H  0.47535081  0.94525769  0.35354113     0.16910
O278        O  0.57707550  0.93628145  0.35994869    -0.60010
H279        H  0.57356110  0.09127611  0.26961146     0.16930
O280        O  0.47098296  0.09924054  0.26209369    -0.60110
H281        H  0.46833360  0.08931588  0.22449185     0.43920
H282        H  0.56929037  0.94024352  0.39801653     0.43880
C283        C  0.20141763  0.02595895  0.17440470    -0.05180
C284        C  0.24630607  0.99434373  0.16790568    -0.32610
C285        C  0.28515070  0.99265078  0.20663782     0.36640
C286        C  0.27999052  0.02389778  0.25245603    -0.05540
C287        C  0.23519229  0.05594238  0.25842710    -0.32510
C288        C  0.19585950  0.05651946  0.22038555     0.36540
H289        H  0.25064959  0.96970409  0.13327059     0.16910
O290        O  0.32628963  0.95803637  0.20074564    -0.60010
H291        H  0.23062324  0.08099317  0.29271323     0.16930
O292        O  0.15304801  0.08868128  0.22765043    -0.60110
H293        H  0.12894405  0.06886923  0.25107386     0.43920
H294        H  0.34785758  0.97194518  0.17132064     0.43880
C295        C  0.33064142  0.02849535  0.55421008    -0.05180
C296        C  0.31319141  0.98365389  0.52714002    -0.32610
C297        C  0.31144077  0.98332719  0.47202906     0.36640
C298        C  0.32733707  0.02816385  0.44388079    -0.05540
C299        C  0.34016182  0.07425904  0.47124438    -0.32510
C300        C  0.34200398  0.07461923  0.52603919     0.36540
H301        H  0.30458667  0.94787745  0.54846603     0.16910
O302        O  0.29923283  0.93764717  0.44605281    -0.60010
H303        H  0.35241706  0.10898353  0.44990653     0.16930
O304        O  0.35731877  0.11949496  0.55186172    -0.60110
H305        H  0.39591992  0.12159328  0.54654546     0.43920
H306        H  0.26119914  0.94052464  0.43829324     0.43880
C307        C  0.28124178  0.02240108  0.74510849    -0.05180
C308        C  0.23536234  0.05260194  0.73862810    -0.32610
C309        C  0.19545382  0.05287880  0.77673628     0.36640
C310        C  0.20128944  0.02348907  0.82305124    -0.05540
C311        C  0.24723100  0.99364743  0.82997198    -0.32510
C312        C  0.28688526  0.99263908  0.79137464     0.36540
H313        H  0.23055066  0.07668793  0.70400808     0.16910
O314        O  0.15197703  0.08395076  0.76938355    -0.60010
H315        H  0.25200672  0.97016286  0.86503240     0.16930
O316        O  0.32963289  0.96038400  0.79801789    -0.60230
H317        H  0.35027055  0.97669154  0.82667818     0.43920
H318        H  0.12858920  0.06311722  0.74630378     0.43880
C319        C  0.72017281  0.01084608  0.55620556    -0.05180
C320        C  0.74422752  0.05276547  0.52961093    -0.32610
C321        C  0.74435782  0.05444492  0.47453539     0.36640
C322        C  0.72026378  0.01378928  0.44582790    -0.05540
C323        C  0.70070178  0.96969505  0.47246796    -0.32510
C324        C  0.70020875  0.96819204  0.52729317     0.36540
H325        H  0.75910114  0.08611864  0.55155338     0.16910
O326        O  0.76288007  0.09839069  0.44953595    -0.60010
H327        H  0.68231003  0.93802786  0.45071623     0.16930
O328        O  0.67768566  0.92618514  0.55247253    -0.60110
H329        H  0.63920234  0.93204893  0.55026272     0.43920
H330        H  0.80046482  0.09082373  0.44206146     0.43880
C331        C  0.58162934  0.03960439  0.69001741    -0.05180
C332        C  0.55445200  0.07950591  0.66373964    -0.32610
C333        C  0.49953877  0.07969788  0.66212536     0.36640
C334        C  0.47078652  0.03959862  0.68728110    -0.05540
C335        C  0.49776266  0.00248238  0.71774356    -0.32510
C336        C  0.55298156  0.00235889  0.71928665     0.36540
H337        H  0.57603648  0.10887710  0.64170188     0.16910
O338        O  0.47412774  0.11846275  0.63474748    -0.60010
H339        H  0.47622432  0.97143070  0.73734508     0.16930
O340        O  0.57849493  0.96275613  0.74517427    -0.60110
H341        H  0.58307914  0.97608617  0.78151480     0.43920
H342        H  0.48302080  0.11207933  0.59723839     0.43880
C343        C  0.84826376  0.02655485  0.82644939    -0.05180
C344        C  0.85885575  0.04977727  0.77759930    -0.32610
C345        C  0.82096182  0.05058838  0.73795604     0.36640
C346        C  0.77136748  0.02688849  0.74627586    -0.05540
C347        C  0.76079628  0.00389403  0.79537721    -0.32510
C348        C  0.79827018  0.00425550  0.83539219     0.36540
H349        H  0.89648179  0.06838634  0.77028594     0.16910
O350        O  0.83185690  0.07720726  0.69238364    -0.60010
H351        H  0.72345342  0.98481913  0.80276465     0.16930
O352        O  0.78621662  0.98074362  0.88233484    -0.60110
H353        H  0.76632654  0.00768322  0.90269050     0.43920
H354        H  0.86023464  0.05685471  0.67458345     0.43880
C355        C  0.20097209  0.84865280  0.00111638    -0.05180
C356        C  0.24753616  0.85536573  0.97209451    -0.32610
C357        C  0.28691893  0.81674409  0.97199674     0.36640
C358        C  0.28060489  0.77072281  0.00235665    -0.05540
C359        C  0.23409807  0.76458073  0.03193382    -0.32510
C360        C  0.19425393  0.80256745  0.03087385     0.36540
H361        H  0.25289913  0.89014618  0.94820365     0.16910
O362        O  0.32976784  0.82293467  0.93952981    -0.60010
H363        H  0.22850759  0.73013814  0.05620865     0.16930
O364        O  0.14975840  0.79516184  0.06072284    -0.60110
H365        H  0.12698489  0.77195847  0.03931887     0.43920
H366        H  0.34999631  0.85259993  0.95468910     0.43880
C367        C  0.33104511  0.46806149  0.99530125    -0.05180
C368        C  0.30789328  0.49578416  0.03738032    -0.32610
C369        C  0.30635801  0.55099442  0.03710427     0.36640
C370        C  0.32823188  0.57856434  0.99441715    -0.05540
C371        C  0.34646976  0.55054199  0.95031844    -0.32510
C372        C  0.34824826  0.49568255  0.95064572     0.36540
H373        H  0.29473542  0.47486121  0.07202763     0.16910
O374        O  0.28858713  0.57751028  0.08080265    -0.60010
H375        H  0.36307769  0.57141304  0.91709653     0.16930
O376        O  0.36927853  0.46928656  0.90822950    -0.60110
H377        H  0.40789572  0.47361288  0.91112272     0.43920
H378        H  0.25091095  0.58464112  0.07403015     0.43880
C379        C  0.20174951  0.20010193  0.00457231    -0.05180
C380        C  0.24770992  0.19178743  0.03355122    -0.32610
C381        C  0.28736680  0.23005942  0.03534224     0.36640
C382        C  0.28215162  0.27708141  0.00632705    -0.05540
C383        C  0.23621439  0.28467697  0.97693652    -0.32510
C384        C  0.19590798  0.24755265  0.97710379     0.36540
H385        H  0.25237820  0.15600656  0.05602327     0.16910
O386        O  0.32938895  0.22235081  0.06789834    -0.60010
H387        H  0.23126252  0.31961007  0.95330713     0.16930
O388        O  0.15160268  0.25740720  0.94864954    -0.60110
H389        H  0.12930249  0.27992466  0.97172560     0.43920
H390        H  0.34952939  0.19261879  0.05223856     0.43880
C391        C  0.58261954  0.33783988  0.01087257    -0.05180
C392        C  0.55563842  0.30803129  0.97312958    -0.32610
C393        C  0.50039033  0.30668692  0.97330532     0.36640
C394        C  0.47194955  0.33556708  0.01145386    -0.05540
C395        C  0.49920798  0.36123059  0.05173044    -0.32510
C396        C  0.55400260  0.36274119  0.05154830     0.36540
H397        H  0.57721383  0.28872461  0.94160984     0.16910
O398        O  0.47473917  0.28119918  0.93348751    -0.60010
H399        H  0.47777062  0.38277864  0.08190522     0.16930
O400        O  0.57946976  0.38992748  0.09049410    -0.60110
H401        H  0.57273917  0.42767461  0.08336855     0.43920
H402        H  0.47226822  0.24405059  0.94493473     0.43880
C403        C  0.77217739  0.28042952  0.99907978    -0.05180
C404        C  0.76598360  0.23602255  0.03125187    -0.32610
C405        C  0.80367105  0.19585804  0.03134682     0.36640
C406        C  0.84929802  0.20027964  0.00003515    -0.05540
C407        C  0.85569126  0.24442764  0.96790486    -0.32510
C408        C  0.81741234  0.28402189  0.96671168     0.36540
H409        H  0.73209804  0.23262445  0.05703524     0.16910
O410        O  0.79667426  0.15361643  0.06398083    -0.60010
H411        H  0.89004365  0.24773822  0.94267689     0.16930
O412        O  0.82322638  0.32453266  0.93170215    -0.60110
H413        H  0.85382476  0.34509236  0.94420309     0.43920
H414        H  0.77321134  0.12933836  0.04460745     0.43880
C415        C  0.46951191  0.71069207  0.99228407    -0.05180
C416        C  0.49646325  0.74149762  0.02924857    -0.32610
C417        C  0.55166736  0.74361109  0.02848936     0.36640
C418        C  0.58017908  0.71446719  0.99057606    -0.05540
C419        C  0.55289697  0.68805769  0.95079741    -0.32510
C420        C  0.49812884  0.68578158  0.95152662     0.36540
H421        H  0.47495658  0.76115321  0.06059745     0.16910
O422        O  0.57730055  0.77014236  0.06764269    -0.60010
H423        H  0.57433281  0.66644824  0.92066442     0.16930
O424        O  0.47271680  0.65821354  0.91278796    -0.60110
H425        H  0.48109547  0.62062709  0.91903576     0.43920
H426        H  0.58045521  0.80680388  0.05488216     0.43880
C427        C  0.72190819  0.47142882  0.99422959    -0.05180
C428        C  0.74164850  0.49827618  0.03814340    -0.32610
C429        C  0.74145148  0.55346406  0.03969216     0.36640
C430        C  0.72111966  0.58178073  0.99704587    -0.05540
C431        C  0.70622351  0.55479081  0.95139308    -0.32510
C432        C  0.70620782  0.49997137  0.94989178     0.36540
H433        H  0.75341348  0.47653358  0.07262147     0.16910
O434        O  0.75607669  0.57902085  0.08478826    -0.60010
H435        H  0.69102545  0.57631392  0.91812474     0.16930
O436        O  0.68811109  0.47442529  0.90601317    -0.60110
H437        H  0.64922514  0.47672836  0.90831882     0.43920
H438        H  0.79430827  0.58543307  0.08054519     0.43880
C439        C  0.76955926  0.77275097  0.00357530    -0.05180
C440        C  0.81735539  0.76366363  0.97675020    -0.32610
C441        C  0.85746518  0.80109955  0.97681147     0.36640
C442        C  0.84976784  0.84974817  0.00243535    -0.05540
C443        C  0.80186881  0.85944551  0.02855222    -0.32510
C444        C  0.76212726  0.82138733  0.02971660     0.36540
H445        H  0.82376836  0.72741543  0.95508373     0.16910
O446        O  0.90321684  0.79046441  0.94984016    -0.60010
H447        H  0.79555216  0.89632093  0.04923467     0.16930
O448        O  0.71752547  0.83107581  0.05891222    -0.60110
H449        H  0.69859801  0.85941391  0.04014193     0.43920
H450        H  0.92461654  0.76894133  0.97408533     0.43880
loop_ 
_geom_bond_atom_site_label_1 
_geom_bond_atom_site_label_2 
_geom_bond_distance 
_geom_bond_site_symmetry_2 
_ccdc_geom_bond_type 
C1            C2   1.412       .  A
C1            C6   1.413   1_554  A
C1          C439   1.491       .  S
C2            C3   1.397       .  A
C2            H7   1.083       .  S
C3            C4   1.395   1_554  A
C3          C430   1.474   1_554  S
C4            C5   1.398       .  A
C4            H8   1.085       .  S
C5            C6   1.402       .  A
C5          C418   1.480       .  S
C6            H9   1.081       .  S
C10          C11   1.410       .  A
C10          C15   1.413   1_556  A
C10         C403   1.488       .  S
C11          C12   1.397       .  A
C11          H16   1.082   1_556  S
C12          C13   1.396   1_556  A
C12         C427   1.472       .  S
C13          C14   1.398       .  A
C13          H17   1.085       .  S
C14          C15   1.402       .  A
C14         C391   1.479       .  S
C15          H18   1.083       .  S
C19          C20   1.413       .  A
C19          C24   1.414       .  A
C19         C382   1.493       .  S
C20          C21   1.402       .  A
C20          H25   1.081       .  S
C21          C22   1.399       .  A
C21         C394   1.479       .  S
C22          C23   1.396       .  A
C22          H26   1.085       .  S
C23          C24   1.398       .  A
C23         C367   1.476   1_554  S
C24          H27   1.083       .  S
C28          C29   1.413       .  A
C28          C33   1.413       .  A
C28         C358   1.491       .  S
C29          C30   1.402   1_554  A
C29          H34   1.082       .  S
C30          C31   1.398       .  A
C30         C415   1.481       .  S
C31          C32   1.396       .  A
C31          H35   1.085       .  S
C32          C33   1.399   1_556  A
C32         C370   1.475       .  S
C33          H36   1.083   1_554  S
C37          C38   1.415       .  A
C37          C42   1.412       .  A
C37         C346   1.494       .  S
C38          C39   1.404       .  A
C38          H43   1.083       .  S
C39          C40   1.398       .  A
C39         C331   1.481       .  S
C40          C41   1.396       .  A
C40          H44   1.085       .  S
C41          C42   1.399       .  A
C41         C319   1.475       .  S
C42          H45   1.082       .  S
C46          C47   1.413       .  A
C46          C51   1.411       .  A
C46         C307   1.489       .  S
C47          C48   1.404       .  A
C47          H52   1.082       .  S
C48          C49   1.400       .  A
C48         C334   1.484       .  S
C49          C50   1.398       .  A
C49          H53   1.084       .  S
C50          C51   1.398       .  A
C50         C295   1.476       .  S
C51          H54   1.084       .  S
C55          C56   1.413       .  A
C55          C60   1.413       .  A
C55         C286   1.490       .  S
C56          C57   1.399       .  A
C56          H61   1.083       .  S
C57          C58   1.396       .  A
C57         C298   1.474       .  S
C58          C59   1.398       .  A
C58          H62   1.085       .  S
C59          C60   1.402       .  A
C59         C271   1.478       .  S
C60          H63   1.082       .  S
C64          C65   1.413       .  A
C64          C69   1.413       .  A
C64         C259   1.491       .  S
C65          C66   1.400       .  A
C65          H70   1.083       .  S
C66          C67   1.396       .  A
C66         C322   1.477       .  S
C67          C68   1.398       .  A
C67          H71   1.085       .  S
C68          C69   1.402       .  A
C68         C274   1.481       .  S
C69          H72   1.082       .  S
C73          C74   1.415       .  A
C73          C78   1.410       .  A
C73         C247   1.490       .  S
C74          C75   1.404       .  A
C74          H79   1.083       .  S
C75          C76   1.399       .  A
C75         C235   1.482       .  S
C76          C77   1.396       .  A
C76          H80   1.085       .  S
C77          C78   1.398       .  A
C77         C223   1.472       .  S
C78          H81   1.082       .  S
C82          C83   1.413       .  A
C82          C87   1.411       .  A
C82         C211   1.487       .  S
C83          C84   1.405       .  A
C83          H88   1.083       .  S
C84          C85   1.400       .  A
C84         C238   1.485       .  S
C85          C86   1.396       .  A
C85          H89   1.084       .  S
C86          C87   1.399       .  A
C86         C199   1.477       .  S
C87          H90   1.083       .  S
C91          C92   1.410       .  A
C91          C96   1.409       .  A
C91         C187   1.484       .  S
C92          C93   1.403       .  A
C92          H97   1.084       .  S
C93          C94   1.399       .  A
C93         C175   1.476       .  S
C94          C95   1.398       .  A
C94          H98   1.085       .  S
C95          C96   1.399       .  A
C95         C226   1.473       .  S
C96          H99   1.083       .  S
C100        C101   1.411       .  A
C100        C105   1.411       .  A
C100        C163   1.488       .  S
C101        C102   1.401       .  A
C101        H106   1.084       .  S
C102        C103   1.398       .  A
C102        C202   1.475       .  S
C103        C104   1.398       .  A
C103        H107   1.085       .  S
C104        C105   1.401       .  A
C104        C178   1.475       .  S
C105        H108   1.083       .  S
O109        C120   1.290       .  A
O109       Eu145   2.453   1_655  S
O110        C121   1.291   1_556  A
O110       Eu144   2.456   1_655  S
O111        C122   1.291       .  A
O111       Eu117   2.454       .  S
O112        C123   1.291       .  A
O112       Eu117   2.457   1_556  S
O113        C123   1.292       .  A
O113       Eu147   2.461   1_655  S
O114        C122   1.291       .  A
O114       Eu146   2.458   1_655  S
O115        C121   1.289       .  A
O115       Eu117   2.449       .  S
O116        C120   1.290       .  A
O116       Eu117   2.450   1_565  S
Eu117       O127   2.352   1_544  S
Eu117       O119   2.349   1_545  S
Eu117       O118   2.350   1_554  S
Eu117       O125   2.350       .  S
O118       Eu147   2.347   1_655  S
O118       Eu144   2.348   1_655  S
O119       Eu145   2.351   1_655  S
O119       Eu146   2.353   1_665  S
C120        C442   1.478       .  S
C121        C406   1.473       .  S
C122        C262   1.479       .  S
C123        C343   1.484       .  S
H124        O125   0.966       .  S
O125       Eu146   2.350   1_655  S
O125       Eu144   2.352   1_654  S
H126        O127   0.966       .  S
O127       Eu145   2.353   1_656  S
O127       Eu147   2.356   1_665  S
O128        C151   1.292       .  A
O128       Eu144   2.460   1_554  S
O129        C152   1.290       .  A
O129       Eu145   2.452       .  S
O130        C153   1.291       .  A
O130       Eu146   2.459       .  S
O131        C154   1.293       .  A
O131       Eu147   2.466       .  S
O132        C155   1.292       .  A
O132       Eu147   2.463   1_565  S
O133        C156   1.291       .  A
O133       Eu146   2.459   1_565  S
O134        C157   1.292       .  A
O134       Eu148   2.461   1_554  S
O135        C158   1.291       .  A
O135       Eu148   2.456       .  S
O136        C157   1.290       .  A
O136       Eu146   2.453       .  S
O137        C158   1.292       .  A
O137       Eu147   2.460       .  S
O138        C153   1.290       .  A
O138       Eu144   2.456   1_554  S
O139        C156   1.291       .  A
O139       Eu145   2.458       .  S
O140        C155   1.291       .  A
O140       Eu145   2.458   1_556  S
O141        C154   1.291       .  A
O141       Eu144   2.457       .  S
O142        C151   1.291       .  A
O142       Eu148   2.454   1_554  S
O143        C152   1.291   1_556  A
O143       Eu148   2.457   1_565  S
Eu144       O162   2.353       .  S
Eu144       O150   2.351   1_556  S
Eu145       O149   2.350   1_554  S
Eu145       O160   2.351       .  S
Eu146       O160   2.352   1_545  S
Eu146       O150   2.349       .  S
Eu147       O149   2.355   1_545  S
Eu147       O162   2.358       .  S
Eu148       O149   2.351   1_545  S
Eu148       O160   2.349   1_546  S
Eu148       O162   2.360       .  S
Eu148       O150   2.351   1_556  S
C151        C379   1.480       .  S
C152        C355   1.477       .  S
C153        C190   1.474       .  S
C154        C250   1.484       .  S
C155        C214   1.478       .  S
C156        C166   1.477       .  S
C157        C283   1.478       .  S
C158        C310   1.478       .  S
H159        O160   0.966       .  S
H161        O162   0.966       .  S
C163        C164   1.406       .  A
C163        C168   1.412   1_455  A
C164        C165   1.400       .  A
C164        H169   1.083       .  S
C165        C166   1.408       .  A
C165        O170   1.372       .  S
C166        C167   1.403   1_455  A
C167        C168   1.402       .  A
C167        H171   1.084       .  S
C168        O172   1.372       .  S
O170        H174   0.992       .  S
O172        H173   0.992       .  S
C175        C176   1.402       .  A
C175        C180   1.408   1_455  A
C176        C177   1.396       .  A
C176        H181   1.084       .  S
C177        C178   1.406       .  A
C177        O182   1.371       .  S
C178        C179   1.404   1_455  A
C179        C180   1.404       .  A
C179        H183   1.084       .  S
C180        O184   1.371       .  S
O182        H186   0.992       .  S
O184        H185   0.991       .  S
C187        C188   1.405   1_455  A
C187        C192   1.411       .  A
C188        C189   1.401       .  A
C188        H193   1.083       .  S
C189        C190   1.409   1_655  A
C189        O194   1.372       .  S
C190        C191   1.400       .  A
C191        C192   1.399       .  A
C191        H195   1.082       .  S
C192        O196   1.373       .  S
O194        H198   0.992       .  S
O196        H197   0.992       .  S
C199        C200   1.403       .  A
C199        C204   1.408   1_455  A
C200        C201   1.405       .  A
C200        H205   1.083       .  S
C201        C202   1.409       .  A
C201        O206   1.371       .  S
C202        C203   1.400   1_455  A
C203        C204   1.395       .  A
C203        H207   1.084       .  S
C204        O208   1.372       .  S
O206        H210   0.992       .  S
O208        H209   0.992       .  S
C211        C212   1.405       .  A
C211        C216   1.412   1_455  A
C212        C213   1.402       .  A
C212        H217   1.083       .  S
C213        C214   1.410       .  A
C213        O218   1.372       .  S
C214        C215   1.402   1_455  A
C215        C216   1.399       .  A
C215        H219   1.084       .  S
C216        O220   1.372       .  S
O218        H222   0.992       .  S
O220        H221   0.992       .  S
C223        C224   1.403   1_455  A
C223        C228   1.406       .  A
C224        C225   1.401       .  A
C224        H229   1.084       .  S
C225        C226   1.407   1_655  A
C225        O230   1.371       .  S
C226        C227   1.402       .  A
C227        C228   1.397       .  A
C227        H231   1.084       .  S
C228        O232   1.371       .  S
O230        H234   0.991       .  S
O232        H233   0.992       .  S
C235        C236   1.401   1_455  A
C235        C240   1.410       .  A
C236        C237   1.396       .  A
C236        H241   1.084       .  S
C237        C238   1.410   1_655  A
C237        O242   1.374       .  S
C238        C239   1.406       .  A
C239        C240   1.407       .  A
C239        H243   1.083       .  S
C240        O244   1.371       .  S
O242        H246   0.992       .  S
O244        H245   0.992       .  S
C247        C248   1.403       .  A
C247        C252   1.414   1_455  A
C248        C249   1.398       .  A
C248        H253   1.083       .  S
C249        C250   1.409       .  A
C249        O254   1.368       .  S
C250        C251   1.404   1_455  A
C251        C252   1.404       .  A
C251        H255   1.084       .  S
C252        O256   1.373       .  S
O254        H258   0.992       .  S
O256        H257   0.992       .  S
C259        C260   1.407       .  A
C259        C264   1.414   1_545  A
C260        C261   1.400       .  A
C260        H265   1.083       .  S
C261        C262   1.409       .  A
C261        O266   1.372       .  S
C262        C263   1.403   1_545  A
C263        C264   1.401       .  A
C263        H267   1.084       .  S
C264        O268   1.372       .  S
O266        H270   0.992       .  S
O268        H269   0.992       .  S
C271        C272   1.401   1_545  A
C271        C276   1.409       .  A
C272        C273   1.394       .  A
C272        H277   1.084       .  S
C273        C274   1.409   1_565  A
C273        O278   1.374       .  S
C274        C275   1.406       .  A
C275        C276   1.406       .  A
C275        H279   1.083       .  S
C276        O280   1.371       .  S
O278        H282   0.992       .  S
O280        H281   0.992       .  S
C283        C284   1.403   1_545  A
C283        C288   1.408       .  A
C284        C285   1.402       .  A
C284        H289   1.084       .  S
C285        C286   1.413   1_565  A
C285        O290   1.372       .  S
C286        C287   1.406       .  A
C287        C288   1.398       .  A
C287        H291   1.083       .  S
C288        O292   1.371       .  S
O290        H294   0.992       .  S
O292        H293   0.992       .  S
C295        C296   1.404   1_545  A
C295        C300   1.407       .  A
C296        C297   1.404       .  A
C296        H301   1.083       .  S
C297        C298   1.408   1_565  A
C297        O302   1.371       .  S
C298        C299   1.401       .  A
C299        C300   1.396       .  A
C299        H303   1.084       .  S
C300        O304   1.373       .  S
O302        H306   0.992       .  S
O304        H305   0.992       .  S
C307        C308   1.407       .  A
C307        C312   1.411   1_545  A
C308        C309   1.399       .  A
C308        H313   1.083       .  S
C309        C310   1.408       .  A
C309        O314   1.372       .  S
C310        C311   1.405   1_545  A
C311        C312   1.403       .  A
C311        H315   1.084       .  S
C312        O316   1.372       .  S
O314        H318   0.992       .  S
O316        H317   0.992       .  S
C319        C320   1.404       .  A
C319        C324   1.406   1_545  A
C320        C321   1.403       .  A
C320        H325   1.084       .  S
C321        C322   1.407       .  A
C321        O326   1.371       .  S
C322        C323   1.403   1_545  A
C323        C324   1.397       .  A
C323        H327   1.084       .  S
C324        O328   1.372       .  S
O326        H330   0.991       .  S
O328        H329   0.992       .  S
C331        C332   1.402       .  A
C331        C336   1.409       .  A
C332        C333   1.398       .  A
C332        H337   1.084       .  S
C333        C334   1.410       .  A
C333        O338   1.373       .  S
C334        C335   1.406       .  A
C335        C336   1.405       .  A
C335        H339   1.083   1_545  S
C336        O340   1.371   1_545  S
O338        H342   0.992       .  S
O340        H341   0.992       .  S
C343        C344   1.404       .  A
C343        C348   1.411       .  A
C344        C345   1.401       .  A
C344        H349   1.084       .  S
C345        C346   1.414       .  A
C345        O350   1.373       .  S
C346        C347   1.407       .  A
C347        C348   1.401       .  A
C347        H351   1.083   1_545  S
C348        O352   1.372   1_545  S
O350        H354   0.992       .  S
O352        H353   0.992   1_565  S
C355        C356   1.402   1_554  A
C355        C360   1.408       .  A
C356        C357   1.401       .  A
C356        H361   1.084       .  S
C357        C358   1.414   1_556  A
C357        O362   1.372       .  S
C358        C359   1.407       .  A
C359        C360   1.399       .  A
C359        H363   1.083       .  S
C360        O364   1.372       .  S
O362        H366   0.992       .  S
O364        H365   0.992       .  S
C367        C368   1.404   1_556  A
C367        C372   1.407       .  A
C368        C369   1.404       .  A
C368        H373   1.083       .  S
C369        C370   1.408   1_554  A
C369        O374   1.371       .  S
C370        C371   1.402       .  A
C371        C372   1.395       .  A
C371        H375   1.084       .  S
C372        O376   1.373       .  S
O374        H378   0.992       .  S
O376        H377   0.992       .  S
C379        C380   1.404       .  A
C379        C384   1.406   1_554  A
C380        C381   1.404       .  A
C380        H385   1.084       .  S
C381        C382   1.415       .  A
C381        O386   1.372       .  S
C382        C383   1.406   1_554  A
C383        C384   1.395       .  A
C383        H387   1.083       .  S
C384        O388   1.368       .  S
O386        H390   0.992       .  S
O388        H389   0.992       .  S
C391        C392   1.405   1_554  A
C391        C396   1.408       .  A
C392        C393   1.406       .  A
C392        H397   1.083       .  S
C393        C394   1.409   1_556  A
C393        O398   1.371       .  S
C394        C395   1.402       .  A
C395        C396   1.394       .  A
C395        H399   1.084       .  S
C396        O400   1.373       .  S
O398        H402   0.992       .  S
O400        H401   0.992       .  S
C403        C404   1.406   1_556  A
C403        C408   1.413       .  A
C404        C405   1.399       .  A
C404        H409   1.083       .  S
C405        C406   1.408       .  A
C405        O410   1.372       .  S
C406        C407   1.401   1_554  A
C407        C408   1.399       .  A
C407        H411   1.084       .  S
C408        O412   1.373       .  S
O410        H414   0.992       .  S
O412        H413   0.992       .  S
C415        C416   1.405   1_556  A
C415        C420   1.410       .  A
C416        C417   1.405       .  A
C416        H421   1.083       .  S
C417        C418   1.409   1_554  A
C417        O422   1.371       .  S
C418        C419   1.402       .  A
C419        C420   1.394       .  A
C419        H423   1.084       .  S
C420        O424   1.374       .  S
O422        H426   0.992       .  S
O424        H425   0.992       .  S
C427        C428   1.404   1_556  A
C427        C432   1.405       .  A
C428        C429   1.403       .  A
C428        H433   1.084       .  S
C429        C430   1.407   1_554  A
C429        O434   1.371       .  S
C430        C431   1.402       .  A
C431        C432   1.394       .  A
C431        H435   1.084       .  S
C432        O436   1.373       .  S
O434        H438   0.992       .  S
O436        H437   0.992       .  S
C439        C440   1.408   1_554  A
C439        C444   1.413       .  A
C440        C441   1.397       .  A
C440        H445   1.083       .  S
C441        C442   1.408   1_556  A
C441        O446   1.372       .  S
C442        C443   1.404       .  A
C443        C444   1.401       .  A
C443        H447   1.084       .  S
C444        O448   1.372       .  S
O446        H450   0.992       .  S
O448        H449   0.992       .  S
