geometry optimzed in LAMMPS
_audit_creation_date              2020-12-01 
_audit_creation_method            'lammps2cif' 
_symmetry_space_group_name_H-M    'P1' 
_symmetry_Int_Tables_number       1 
_symmetry_cell_setting            triclinic 
loop_ 
_symmetry_equiv_pos_as_xyz 
  x,y,z 
_cell_length_a                    18.11318136 
_cell_length_b                    19.97077751861836 
_cell_length_c                    19.848026405481967 
_cell_angle_alpha                 90.09963947168377 
_cell_angle_beta                  86.98427603417316 
_cell_angle_gamma                 87.73308177835477 
loop_ 
_atom_site_label 
_atom_site_type_symbol 
_atom_site_fract_x 
_atom_site_fract_y 
_atom_site_fract_z 
_atom_site_charge 
C1          C  0.08516711  0.13970642  0.24097424     0.86600
C2          C  0.14835085  0.11093532  0.28098082    -0.53600
C3          C  0.19996625  0.15140404  0.29794056     0.09500
C4          C  0.18227888  0.22580054  0.27185589     0.20500
C5          C  0.05061626  0.20020469  0.28005583    -0.54400
C6          C  0.09845276  0.24729206  0.29626004     0.09600
C7          C  0.12743521  0.17087059  0.17762070    -0.53900
C8          C  0.18046964  0.21629043  0.19282106     0.10200
H9          H  0.15342879  0.05940170  0.29440614     0.14700
H10         H  0.22146996  0.26337089  0.28723830     0.00500
H11         H  0.99163981  0.20657144  0.29053297     0.15000
H12         H  0.11759906  0.15718437  0.12634271     0.14800
C13         C  0.07093821  0.31808920  0.32596593     0.30100
C14         C  0.06204053  0.44783811  0.37506823     0.30100
C15         C  0.10547140  0.37122733  0.28146320    -0.06100
C16         C  0.98879010  0.34941109  0.33531865    -0.06900
C17         C  0.09722324  0.32831952  0.39661041    -0.06700
C18         C  0.09899228  0.43715726  0.30603190    -0.06100
C19         C  0.98365183  0.41643492  0.36185028    -0.06900
C20         C  0.09415525  0.39429346  0.42103186    -0.06700
C21         C  0.07792961  0.47582025  0.25257097    -0.32100
N22         N  0.07622380  0.43893301  0.19658323     0.14400
C23         C  0.09193807  0.37533415  0.21397542    -0.32100
H24         H  0.07457008  0.33344505  0.18520168     0.16300
C25         C  0.90809010  0.43569281  0.36242808    -0.31100
N26         N  0.86819269  0.38516152  0.33662275     0.13100
C27         C  0.91696545  0.33302173  0.31971082    -0.31100
C28         C  0.07605702  0.38993223  0.48938180    -0.31400
N29         N  0.07067181  0.32561583  0.50910375     0.13600
H30         H  0.05491791  0.43179107  0.52026969     0.16200
C31         C  0.07730963  0.28934319  0.45169934    -0.31400
H32         H  0.05642573  0.23952343  0.44880500     0.16200
H33         H  0.90104365  0.28677901  0.29736411     0.16200
H34         H  0.04892674  0.52411080  0.25738822     0.16300
H35         H  0.88418722  0.48388444  0.37867330     0.16200
C36         C  0.06327225  0.62747057  0.45748474     0.86600
C37         C  0.12071647  0.65926210  0.40875563    -0.53600
C38         C  0.17662717  0.61942850  0.38488525     0.09500
C39         C  0.16678703  0.54333076  0.41173418     0.20500
C40         C  0.03236030  0.56719260  0.42205755    -0.54400
C41         C  0.08373906  0.52009416  0.39998556     0.09600
C42         C  0.11255591  0.59585648  0.51344908    -0.53900
C43         C  0.16851775  0.55127396  0.49055380     0.10200
H44         H  0.12046815  0.71211756  0.39658475     0.14700
H45         H  0.20827478  0.50611024  0.38999325     0.00500
H46         H  0.97348861  0.56029801  0.41947744     0.15000
H47         H  0.10466320  0.60902114  0.56586997     0.14800
C48         C  0.38893128  0.08455799  0.40734094     0.30100
C49         C  0.26676440  0.11885769  0.33506944     0.30100
C50         C  0.40150073  0.12261596  0.33941467    -0.06100
C51         C  0.34904949  0.02100848  0.38133612    -0.06900
C52         C  0.32222153  0.12174514  0.44476581    -0.06700
C53         C  0.34003329  0.14626846  0.30858930    -0.06100
C54         C  0.28562688  0.03741778  0.34381959    -0.06900
C55         C  0.26334462  0.14053508  0.40756410    -0.06700
C56         C  0.36327363  0.19556685  0.26414855    -0.32100
N57         N  0.43793336  0.19354152  0.25655534     0.14400
C58         C  0.46153786  0.14653500  0.30155585    -0.32100
H59         H  0.51827305  0.12978422  0.30697987     0.16300
C60         C  0.25757280  0.97293012  0.32856698    -0.31100
N61         N  0.29985205  0.92013086  0.35321445     0.13100
C62         C  0.35644626  0.94996414  0.38444174    -0.31100
C63         C  0.20942233  0.16851286  0.45026005    -0.31400
N64         N  0.23264781  0.16838551  0.51378862     0.13600
H65         H  0.15580386  0.18410669  0.43552638     0.16200
C66         C  0.30052936  0.13633415  0.51150048    -0.31400
H67         H  0.33234840  0.12415274  0.55465322     0.16200
H68         H  0.40086965  0.92226574  0.40763953     0.16200
H69         H  0.32884789  0.23324336  0.24280739     0.16300
H70         H  0.20969908  0.96461865  0.30090972     0.16200
C71         C  0.58141948  0.22711893  0.11256805     0.86600
C72         C  0.61804680  0.27989242  0.15664461    -0.53600
C73         C  0.56925078  0.31790643  0.19702010     0.09500
C74         C  0.48442425  0.30026379  0.18316362     0.20500
C75         C  0.53308245  0.18816184  0.16462221    -0.54400
C76         C  0.48242351  0.22484650  0.20219776     0.09600
C77         C  0.52836471  0.26763342  0.06835784    -0.53900
C78         C  0.47237656  0.30135388  0.10247629     0.10200
H79         H  0.67703664  0.28231380  0.16183885     0.14700
H80         H  0.44253697  0.33104833  0.21357937     0.00500
H81         H  0.53997247  0.13445477  0.17249722     0.15000
H82         H  0.53229949  0.26678107  0.01374060     0.14800
C83         C  0.12536004  0.23921842  0.67174832     0.86600
C84         C  0.07147835  0.27651071  0.62479239    -0.53600
C85         C  0.10660056  0.30042433  0.56729191     0.09500
C86         C  0.19012860  0.28592540  0.56255373     0.20500
C87         C  0.16556909  0.18430290  0.62552471    -0.54400
C88         C  0.19848764  0.20926627  0.56798522     0.09600
C89         C  0.18598262  0.28868095  0.68334121    -0.53900
C90         C  0.21868520  0.31421615  0.62847574     0.10200
H91         H  0.01194151  0.28040422  0.63440760     0.14700
H92         H  0.21770706  0.30571464  0.51579507     0.00500
H93         H  0.16733327  0.13115175  0.63467492     0.15000
H94         H  0.20136730  0.30266975  0.73198754     0.14800
C95         C  0.58659667  0.42101851  0.38800930     0.30100
C96         C  0.59381460  0.35556509  0.26347149     0.30100
C97         C  0.55489865  0.45864884  0.32863850    -0.06100
C98         C  0.66749371  0.40445637  0.35815926    -0.06900
C99         C  0.55506433  0.35179059  0.38585196    -0.06700
C100        C  0.55945225  0.42567310  0.26591231    -0.06100
C101        C  0.67285112  0.36966783  0.29446799    -0.06900
C102        C  0.55753907  0.31966656  0.32267310    -0.06700
C103        C  0.57389151  0.47403352  0.21849886    -0.32100
N104        N  0.57201884  0.53475080  0.24747235     0.14400
C105        C  0.56510852  0.52518610  0.31446530    -0.32100
H106        H  0.57873027  0.56223040  0.35098222     0.16300
C107        C  0.74988099  0.35853526  0.28080924    -0.31100
N108        N  0.78909712  0.38585110  0.33136387     0.13100
C109        C  0.73895652  0.41350612  0.37808356    -0.31100
C110        C  0.56987388  0.25256423  0.33418242    -0.31400
N111        N  0.57429507  0.24176273  0.40013361     0.13600
H112        H  0.58789488  0.21590791  0.29622967     0.16200
C113        C  0.56950317  0.30157471  0.43118839    -0.31400
H114        H  0.59220714  0.30883138  0.47944840     0.16200
H115        H  0.75363667  0.43711813  0.42427395     0.16200
H116        H  0.59517939  0.46524477  0.16730768     0.16300
H117        H  0.77523167  0.33289115  0.23692182     0.16200
C118        C  0.52981329  0.66570645  0.11774519     0.86600
C119        C  0.46857432  0.70633499  0.16184697    -0.53600
C120        C  0.43068436  0.66656858  0.20791129     0.09500
C121        C  0.45649413  0.59134135  0.20238442     0.20500
C122        C  0.57765829  0.62939933  0.17096440    -0.54400
C123        C  0.53863391  0.59039090  0.21411219     0.09600
C124        C  0.48942091  0.60791892  0.08567467    -0.53900
C125        C  0.45170876  0.57027958  0.12957423     0.10200
H126        H  0.45609244  0.75953842  0.15632573     0.14700
H127        H  0.42616952  0.55584436  0.23555408     0.00500
H128        H  0.63723202  0.62707278  0.17200559     0.15000
H129        H  0.49335376  0.59486772  0.03239008     0.14800
C130        C  0.56205290  0.10042890  0.52274504     0.86600
C131        C  0.50228702  0.06042764  0.48654611    -0.53600
C132        C  0.45494404  0.10094155  0.45095207     0.09500
C133        C  0.47158714  0.17692275  0.45754582     0.20500
C134        C  0.59970795  0.14214954  0.46560116    -0.54400
C135        C  0.55179125  0.18222373  0.43284425     0.09600
C136        C  0.51869822  0.15533212  0.56626618    -0.53900
C137        C  0.47221964  0.19498585  0.53212738     0.10200
H138        H  0.49861742  0.00638740  0.48860517     0.14700
H139        H  0.43414021  0.21191801  0.43064911     0.00500
H140        H  0.65835931  0.14847362  0.45664656     0.15000
H141        H  0.52801510  0.16535998  0.61889974     0.14800
C142        C  0.24244137  0.65290041  0.34219843     0.30100
C143        C  0.36357662  0.68214509  0.25764606     0.30100
C144        C  0.23863881  0.63505511  0.26839120    -0.06100
C145        C  0.26407729  0.73405801  0.33667776    -0.06900
C146        C  0.31601339  0.61874462  0.35802728    -0.06700
C147        C  0.29674083  0.65175790  0.22550188    -0.06100
C148        C  0.32693552  0.74599174  0.29185008    -0.06900
C149        C  0.37633805  0.64015084  0.32151505    -0.06700
C150        C  0.27891238  0.63266708  0.16114809    -0.32100
N151        N  0.21433638  0.59986592  0.16556656     0.14400
C152        C  0.19049079  0.60167972  0.23136493    -0.32100
H153        H  0.14002954  0.58358191  0.25144900     0.16300
C154        C  0.34422052  0.81374001  0.29434784    -0.31100
N155        N  0.29532787  0.84864636  0.33718541     0.13100
C156        C  0.24624071  0.80118183  0.36274896    -0.31100
C157        C  0.43694004  0.61760902  0.35496393    -0.31400
N158        N  0.41631881  0.57124650  0.40182672     0.13600
H159        H  0.49127874  0.63715552  0.34703088     0.16200
C160        C  0.34194665  0.57039248  0.40143251    -0.31400
H161        H  0.30987797  0.53555169  0.42863686     0.16200
H162        H  0.20102522  0.81362907  0.39880857     0.16200
H163        H  0.31148322  0.64198361  0.11528060     0.16300
H164        H  0.39059857  0.83571576  0.26723970     0.16200
C165        C  0.09799795  0.52617906  0.02902476     0.86600
C166        C  0.05623785  0.48992000  0.08660837    -0.53600
C167        C  0.10133339  0.46619645  0.13407173     0.09500
C168        C  0.18214287  0.48198980  0.12245873     0.20500
C169        C  0.14066413  0.58182827  0.06467831    -0.54400
C170        C  0.18266858  0.55816041  0.11536350     0.09600
C171        C  0.16087217  0.47570199  0.00343881    -0.53900
C172        C  0.20561036  0.45310891  0.05188693     0.10200
H173        H  0.99668669  0.48494163  0.09034316     0.14700
H174        H  0.21600001  0.46322817  0.16409111     0.00500
H175        H  0.13901674  0.63435109  0.05307974     0.15000
H176        H  0.16808795  0.45884708  0.95207946     0.14800
C177        C  0.55769758  0.55460298  0.53567811     0.86600
C178        C  0.60311925  0.50200469  0.49009863    -0.53600
C179        C  0.56022445  0.45858298  0.45632471     0.09500
C180        C  0.47453422  0.47180737  0.47707931     0.20500
C181        C  0.50554995  0.58696989  0.48561980    -0.54400
C182        C  0.46137947  0.54561831  0.45520997     0.09600
C183        C  0.51086669  0.51363854  0.58632002    -0.53900
C184        C  0.46400963  0.47244273  0.55816990     0.10200
H185        H  0.66169813  0.50527107  0.47787434     0.14700
H186        H  0.43781740  0.43750063  0.45186613     0.00500
H187        H  0.50509586  0.64004154  0.47326194     0.15000
H188        H  0.51200080  0.51954753  0.64057732     0.14800
C189        C  0.40337658  0.33406110  0.06546597     0.30100
C190        C  0.27546608  0.40800769  0.04308969     0.30100
C191        C  0.39513652  0.40317347  0.09703860    -0.06100
C192        C  0.39019368  0.35393481  0.98506696    -0.06900
C193        C  0.32800469  0.30162364  0.08851756    -0.06700
C194        C  0.33248570  0.44064272  0.08374737    -0.06100
C195        C  0.32273240  0.39153156  0.97690250    -0.06900
C196        C  0.26494658  0.33963459  0.07669520    -0.06700
C197        C  0.35043095  0.50660026  0.08653990    -0.32100
N198        N  0.41803089  0.51039278  0.11017243     0.14400
C199        C  0.44783201  0.44769774  0.11191658    -0.32100
H200        H  0.50558082  0.43508401  0.11388090     0.16300
C201        C  0.31846758  0.41145953  0.90964131    -0.31100
N202        N  0.37866463  0.38875226  0.87090610     0.13100
C203        C  0.42233715  0.35268813  0.91600298    -0.31100
C204        C  0.20465542  0.30804401  0.10658297    -0.31400
N205        N  0.22694947  0.25255985  0.14110968     0.13600
H206        H  0.14836086  0.32488690  0.10121604     0.16200
C207        C  0.30219133  0.24608684  0.12544043    -0.31400
H208        H  0.33684049  0.20348764  0.13864337     0.16200
H209        H  0.47352243  0.32596505  0.90047263     0.16200
H210        H  0.32029289  0.54743243  0.06403602     0.16300
H211        H  0.27321824  0.44025048  0.88941028     0.16200
C212        C  0.40150203  0.43613655  0.60035760     0.30100
C213        C  0.28276681  0.35998674  0.63041980     0.30100
C214        C  0.40428746  0.36489708  0.57104521    -0.06100
C215        C  0.38817142  0.41888806  0.68139265    -0.06900
C216        C  0.32357497  0.46642061  0.58155368    -0.06700
C217        C  0.34369033  0.32750923  0.58602269    -0.06100
C218        C  0.32578038  0.37909559  0.69458628    -0.06900
C219        C  0.26510578  0.42692197  0.59662366    -0.06700
C220        C  0.36589070  0.26106509  0.58192894    -0.32100
N221        N  0.43684616  0.25555415  0.55994114     0.14400
C222        C  0.46243101  0.31853570  0.55882460    -0.32100
H223        H  0.51960095  0.33020443  0.56007969     0.16300
C224        C  0.32311767  0.36142915  0.76349254    -0.31100
N225        N  0.37903289  0.38763739  0.79686243     0.13100
C226        C  0.41850999  0.42410216  0.74767151    -0.31100
C227        C  0.20248368  0.45666040  0.57030018    -0.31400
N228        N  0.21903903  0.51340346  0.53573154     0.13600
H229        H  0.14863740  0.43785752  0.57859899     0.16200
C230        C  0.29266270  0.52199690  0.54745801    -0.31400
H231        H  0.32279849  0.56557818  0.53250841     0.16200
H232        H  0.46586049  0.45293321  0.75833519     0.16200
H233        H  0.33555867  0.22052055  0.60338512     0.16300
H234        H  0.28337373  0.33130965  0.78994232     0.16200
N235        N  0.08096436  0.82341063  0.01029534    -0.06000
N236        N  0.08618791  0.79248771  0.06759425    -0.58100
N237        N  0.12084371  0.95851616  0.92023330    -0.05700
N238        N  0.16586567  0.00853421  0.92470196    -0.60300
N239        N  0.06240545  0.96872673  0.96138303    -0.05300
N240        N  0.06586293  0.02586208  0.99373273    -0.58100
N241        N  0.14293922  0.81739801  0.97296047    -0.05000
N242        N  0.19414046  0.78748834  0.00975937    -0.60600
C243        C  0.15739142  0.77294119  0.07021033     0.96200
C244        C  0.13059991  0.04967562  0.97144454     0.95900
N245        N  0.06181944  0.89536030  0.73654704    -0.06200
N246        N  0.05754272  0.92725241  0.67935355    -0.58700
N247        N  0.15555010  0.76725935  0.81204063    -0.04300
N248        N  0.21619875  0.72874439  0.80026011    -0.60000
N249        N  0.10510968  0.75168540  0.77001032    -0.06200
N250        N  0.13113456  0.70426527  0.72857415    -0.59000
N251        N  0.12285580  0.90876432  0.76595521    -0.04000
N252        N  0.16425586  0.94591143  0.72453895    -0.60000
Mn253      Mn  0.14044915  0.86264005  0.86806005     1.18400
C254        C  0.12198946  0.95765344  0.67013835     0.98200
C255        C  0.19994751  0.68844759  0.74804410     0.98900
N256        N  0.89137764  0.95182481  0.96662270    -0.06200
N257        N  0.88041841  0.01737286  0.95912665    -0.62600
N258        N  0.87788520  0.77763071  0.99254692    -0.05000
N259        N  0.81995072  0.75440634  0.02599282    -0.61200
N260        N  0.91511590  0.81368355  0.03283975    -0.05800
N261        N  0.87950765  0.81833447  0.09243589    -0.62800
N262        N  0.83937649  0.91982844  0.93846756    -0.04600
N263        N  0.79052444  0.96262993  0.91469348    -0.63500
Mn264      Mn  0.98838638  0.89065496  0.99341138     1.10700
C265        C  0.81637700  0.02364515  0.92622608     0.99500
C266        C  0.81491402  0.78790470  0.08485629     0.99500
N267        N  0.93133921  0.71961293  0.78864081    -0.05800
N268        N  0.91225942  0.66665033  0.75371796    -0.61100
N269        N  0.84778112  0.86700843  0.79758973    -0.05100
N270        N  0.78842687  0.90035741  0.77947534    -0.57900
N271        N  0.89766220  0.86435769  0.74794328    -0.06400
N272        N  0.87250767  0.89477929  0.69437454    -0.60700
N273        N  0.89109728  0.72368250  0.84547149    -0.05400
N274        N  0.84931909  0.67190540  0.85223346    -0.57900
Mn275      Mn  0.99940315  0.80701928  0.75934924     1.20200
Mn276      Mn  0.86398559  0.82023356  0.89404268     1.10100
Cl277      Cl  0.99890273  0.84416488  0.87880544    -0.85900
C278        C  0.86015936  0.63666384  0.79438750     0.96500
C279        C  0.80259381  0.91590281  0.71396008     0.96300
C280        C  0.57163492  0.73041675  0.59826710    -0.22400
C281        C  0.64699517  0.74211385  0.58870284     0.09600
C282        C  0.69720232  0.68611494  0.57582226     0.10000
C283        C  0.66884634  0.62338956  0.56135758    -0.17300
C284        C  0.59272570  0.61307776  0.56935711    -0.27700
C285        C  0.54544324  0.66615990  0.59738676     0.18300
C286        C  0.66989113  0.81121592  0.60355043     0.12300
C287        C  0.78006846  0.68888807  0.57921529    -0.12000
H288        H  0.70673358  0.58259926  0.54519093     0.12600
C289        C  0.46602593  0.65764420  0.62366563    -0.22900
H290        H  0.53244063  0.77191805  0.60900074     0.08200
C291        C  0.72709569  0.84372018  0.56688575     0.04600
C292        C  0.76343874  0.89433051  0.59937129    -0.20100
C293        C  0.74281861  0.91122230  0.66680073    -0.12400
C294        C  0.67191892  0.89441257  0.69295212     0.13300
C295        C  0.63671404  0.84364305  0.66114527    -0.22800
C296        C  0.75331234  0.82384232  0.49613936    -0.05900
H297        H  0.81428005  0.91249392  0.57604993     0.14800
C298        C  0.63814242  0.91979807  0.76006466    -0.16100
H299        H  0.58825158  0.82418757  0.68732175     0.09100
H300        H  0.43049761  0.63871761  0.58479282     0.07000
H301        H  0.43935378  0.70575140  0.64213321     0.08200
H302        H  0.46499756  0.62337439  0.66750795     0.07200
H303        H  0.79794538  0.73620644  0.60100123     0.02100
H304        H  0.80699610  0.68125518  0.52808456     0.02600
H305        H  0.80042499  0.64815145  0.61234134     0.06100
H306        H  0.81232918  0.80626729  0.49504191     0.05100
H307        H  0.74827220  0.86800564  0.46256698    -0.00700
H308        H  0.72005179  0.78380401  0.47566001     0.00800
H309        H  0.57960817  0.93597529  0.75480398     0.04500
H310        H  0.66800616  0.96243023  0.77972620     0.06400
H311        H  0.63892190  0.88014009  0.79870960     0.07300
C312        C  0.04275833  0.61182593  0.87185222    -0.22400
C313        C  0.04829624  0.55239038  0.83437271     0.09600
C314        C  0.01822568  0.49620357  0.86523939     0.10000
C315        C  0.01915223  0.49137960  0.93575514    -0.17300
C316        C  0.04695121  0.54459330  0.97235544    -0.27700
C317        C  0.04205251  0.60843263  0.94215736     0.18300
C318        C  0.11888866  0.54310574  0.79381584     0.12300
C319        C  0.98749885  0.44335540  0.82266432    -0.12000
H320        H  0.00750558  0.44449042  0.96060191     0.12600
C321        C  0.03544117  0.67243730  0.98055607    -0.22900
H322        H  0.05339647  0.65894425  0.84737568     0.08200
C323        C  0.12263209  0.55293071  0.72349670     0.04600
C324        C  0.18652051  0.58221823  0.69470621    -0.20100
C325        C  0.22901409  0.61808978  0.73877378    -0.12400
C326        C  0.24242378  0.58561138  0.79955754     0.13300
C327        C  0.18448892  0.54941324  0.82867347    -0.22800
C328        C  0.05621469  0.54578286  0.68218778    -0.05900
H329        H  0.18684846  0.59809263  0.64285331     0.14800
C330        C  0.30600926  0.60344647  0.84083324    -0.16100
H331        H  0.18469269  0.53984970  0.88191826     0.09100
H332        H  0.02280122  0.66449474  0.03520338     0.07000
H333        H  0.98950413  0.70367952  0.96134802     0.08200
H334        H  0.08737447  0.69872943  0.97086275     0.07200
H335        H  0.94150642  0.46597397  0.79545991     0.02100
H336        H  0.96617207  0.40103541  0.85312478     0.02600
H337        H  0.02994841  0.42551674  0.78411328     0.06100
H338        H  0.00983767  0.52278082  0.71074941     0.05100
H339        H  0.07058374  0.51411747  0.63728853    -0.00700
H340        H  0.03627090  0.59613371  0.66648093     0.00800
H341        H  0.28497778  0.62948714  0.88794326     0.04500
H342        H  0.34392486  0.63681418  0.81221821     0.06400
H343        H  0.33774773  0.55711298  0.85415878     0.07300
C344        C  0.62819128  0.05859241  0.68980605    -0.22400
C345        C  0.69902849  0.08567336  0.68331796     0.09600
C346        C  0.73112053  0.09334292  0.61713201     0.10000
C347        C  0.69154542  0.07477070  0.56151802    -0.17300
C348        C  0.61530660  0.06294646  0.56891994    -0.27700
C349        C  0.58766567  0.04387638  0.63358818     0.18300
C350        C  0.74045421  0.09600983  0.74622399     0.12300
C351        C  0.80264842  0.12795944  0.60191384    -0.12000
H352        H  0.71851536  0.07871659  0.51197952     0.12600
C353        C  0.51273167  0.01372379  0.64369582    -0.22900
H354        H  0.60295608  0.05040894  0.73941026     0.08200
C355        C  0.70468963  0.12019848  0.80749203     0.04600
C356        C  0.73634056  0.10501171  0.86915481    -0.20100
C357        C  0.80577433  0.07170992  0.87094881    -0.12400
C358        C  0.84796991  0.06103975  0.80968444     0.13300
C359        C  0.81387110  0.07044476  0.74841280    -0.22800
C360        C  0.63227192  0.16018041  0.80989630    -0.05900
H361        H  0.70413597  0.11468402  0.91602779     0.14800
C362        C  0.92652245  0.03289886  0.80873042    -0.16100
H363        H  0.84304292  0.05178375  0.70283212     0.09100
H364        H  0.46806530  0.04748756  0.62562787     0.07000
H365        H  0.49850867  0.00373814  0.69766373     0.08200
H366        H  0.51300185  0.96552669  0.61571019     0.07200
H367        H  0.84517295  0.09152194  0.57988433     0.02100
H368        H  0.82379670  0.15244862  0.64671665     0.02600
H369        H  0.79336279  0.16860341  0.56477328     0.06100
H370        H  0.63834404  0.20765389  0.83790170     0.05100
H371        H  0.58853437  0.13119411  0.83642132    -0.00700
H372        H  0.61457852  0.17396967  0.75892665     0.00800
H373        H  0.92853068  0.98192093  0.83061340     0.04500
H374        H  0.96029531  0.06616921  0.83844640     0.06400
H375        H  0.95193879  0.02938000  0.75661348     0.07300
C376        C  0.56840951  0.68872846  0.93600567    -0.22400
C377        C  0.63818860  0.65448911  0.93112437     0.09600
C378        C  0.67845108  0.64901446  0.99067431     0.10000
C379        C  0.64869472  0.67873367  0.05061287    -0.17300
C380        C  0.57344776  0.69808223  0.05854212    -0.27700
C381        C  0.53681530  0.71280046  0.99846913     0.18300
C382        C  0.67270568  0.63247437  0.86353906     0.12300
C383        C  0.75362469  0.61390016  0.99297537    -0.12000
H384        H  0.68336418  0.68085849  0.09299434     0.12600
C385        C  0.46112296  0.74710305  0.00123067    -0.22900
H386        H  0.53661749  0.69398818  0.89164552     0.08200
C387        C  0.68397093  0.67771229  0.80907713     0.04600
C388        C  0.73981752  0.66240924  0.75835367    -0.20100
C389        C  0.79141305  0.60986704  0.76899011    -0.12400
C390        C  0.76263582  0.55550827  0.80564478     0.13300
C391        C  0.70552870  0.56776483  0.85553845    -0.22800
C392        C  0.64381593  0.74437739  0.80665097    -0.05900
H393        H  0.75530828  0.70108253  0.72273535     0.14800
C394        C  0.79244746  0.48556004  0.79292166    -0.16100
H395        H  0.68928030  0.52802829  0.88960832     0.09100
H396        H  0.42022381  0.71671551  0.02970961     0.07000
H397        H  0.44092357  0.75537829  0.94991659     0.08200
H398        H  0.46366839  0.79669394  0.02615832     0.07200
H399        H  0.79320897  0.63698607  0.95722937     0.02100
H400        H  0.75025371  0.55985080  0.98169587     0.02600
H401        H  0.77660116  0.61718477  0.04363164     0.06100
H402        H  0.66876596  0.77456833  0.76583275     0.05100
H403        H  0.64869419  0.77229001  0.85426155    -0.00700
H404        H  0.58494249  0.73809666  0.79621922     0.00800
H405        H  0.81769883  0.46551876  0.83886455     0.04500
H406        H  0.83353912  0.48406201  0.74939631     0.06400
H407        H  0.74656490  0.45336557  0.78006221     0.07300
C408        C  0.12905276  0.23546467  0.97940600    -0.22400
C409        C  0.19119140  0.23590346  0.93454541     0.09600
C410        C  0.24936667  0.19084141  0.95008684     0.10000
C411        C  0.22986566  0.12906341  0.97770306    -0.17300
C412        C  0.15405650  0.11661549  0.98767041    -0.27700
C413        C  0.10224017  0.17215004  0.99364039     0.18300
C414        C  0.16645164  0.23382425  0.86388266     0.12300
C415        C  0.32675578  0.20056947  0.92265916    -0.12000
H416        H  0.27110359  0.08826657  0.97857617     0.12600
C417        C  0.01933636  0.16560006  0.99936601    -0.22900
H418        H  0.08997687  0.27793228  0.97995729     0.08200
C419        C  0.12128670  0.28658952  0.84017194     0.04600
C420        C  0.07682367  0.27599958  0.78496027    -0.20100
C421        C  0.09400095  0.22027941  0.74222162    -0.12400
C422        C  0.12583341  0.16380024  0.77316745     0.13300
C423        C  0.16615250  0.17165563  0.83033947    -0.22800
C424        C  0.12702128  0.35534863  0.86873641    -0.05900
H425        H  0.04748021  0.31843700  0.76409022     0.14800
C426        C  0.11388728  0.09455634  0.74959976    -0.16100
H427        H  0.19325764  0.12752544  0.85053168     0.09100
H428        H  0.00117599  0.13686288  0.95566916     0.07000
H429        H  0.98932315  0.21518048  0.99924189     0.08200
H430        H  0.00196436  0.14079607  0.04662868     0.07200
H431        H  0.36457450  0.20135092  0.96485929     0.02100
H432        H  0.33006652  0.24848456  0.89470943     0.02600
H433        H  0.34466339  0.15909372  0.88745217     0.06100
H434        H  0.17308464  0.35774641  0.90298184     0.05100
H435        H  0.07549621  0.36824959  0.89834028    -0.00700
H436        H  0.13881748  0.39170948  0.82779125     0.00800
H437        H  0.07473289  0.09475246  0.70863230     0.04500
H438        H  0.08993997  0.06467353  0.79188358     0.06400
H439        H  0.16825549  0.07146415  0.73246902     0.07300
C440        C  0.68611164  0.92540171  0.04061008    -0.22400
C441        C  0.69469872  0.96723107  0.09551148     0.09600
C442        C  0.71746141  0.93871086  0.15662749     0.10000
C443        C  0.74529423  0.87195846  0.15607300    -0.17300
C444        C  0.74830369  0.83319979  0.09652909    -0.27700
C445        C  0.70897504  0.85858343  0.04071478     0.18300
C446        C  0.67731164  0.03938386  0.08525243     0.12300
C447        C  0.71509700  0.97733283  0.22199745    -0.12000
H448        H  0.77193412  0.85262115  0.20009503     0.12600
C449        C  0.69336435  0.82181094  0.97676125    -0.22900
H450        H  0.66453482  0.94590784  0.99468392     0.08200
C451        C  0.72632101  0.09070267  0.09845569     0.04600
C452        C  0.70030390  0.15770144  0.09484522    -0.20100
C453        C  0.62858514  0.17373955  0.07387622    -0.12400
C454        C  0.59060988  0.12234086  0.04168933     0.13300
C455        C  0.61197621  0.05619686  0.05363460    -0.22800
C456        C  0.80525766  0.07688850  0.11659380    -0.05900
H457        H  0.73463835  0.19625903  0.11274220     0.14800
C458        C  0.52161277  0.13448604  0.00299331    -0.16100
H459        H  0.57582209  0.01711491  0.03955022     0.09100
H460        H  0.72128593  0.84544464  0.93236592     0.07000
H461        H  0.63285019  0.82475738  0.97000900     0.08200
H462        H  0.70993448  0.76901296  0.97536655     0.07200
H463        H  0.68182214  0.95029194  0.26103017     0.02100
H464        H  0.68929605  0.02828625  0.21756608     0.02600
H465        H  0.77208858  0.98167750  0.23914834     0.06100
H466        H  0.84293676  0.10331493  0.08058935     0.05100
H467        H  0.82199971  0.02295290  0.11388428    -0.00700
H468        H  0.81302026  0.09561123  0.16833777     0.00800
H469        H  0.50239560  0.08746638  0.98098458     0.04500
H470        H  0.53357609  0.16829742  0.95985578     0.06400
H471        H  0.47509047  0.15506537  0.03628414     0.07300
C472        C  0.06221571  0.93096986  0.51654697    -0.22400
C473        C  0.08837949  0.86424513  0.51937655     0.09600
C474        C  0.15956079  0.85070633  0.54445655     0.10000
C475        C  0.19255996  0.90096489  0.58096192    -0.17300
C476        C  0.15077826  0.95946614  0.59889556    -0.27700
C477        C  0.09667202  0.98027961  0.55318955     0.18300
C478        C  0.03724964  0.80926915  0.50829879     0.12300
C479        C  0.19828528  0.78252742  0.53923479    -0.12000
H480        H  0.24098974  0.88751497  0.60861304     0.12600
C481        C  0.06532531  0.05099708  0.55392889    -0.22900
H482        H  0.01134885  0.94323262  0.49206046     0.08200
C483        C  0.01903894  0.76404564  0.56090836     0.04600
C484        C  0.99763101  0.69984089  0.54498562    -0.20100
C485        C  0.00250001  0.68044211  0.47782483    -0.12400
C486        C  0.98635950  0.73201582  0.43084281     0.13300
C487        C  0.01070804  0.79662009  0.44458729    -0.22800
C488        C  0.02297306  0.78276286  0.63290099    -0.05900
H489        H  0.99112458  0.66249806  0.58388476     0.14800
C490        C  0.95791954  0.71561061  0.36322969    -0.16100
H491        H  0.01492298  0.83381368  0.40504671     0.09100
H492        H  0.02048249  0.05769018  0.51819919     0.07000
H493        H  0.10960556  0.08529663  0.53840844     0.08200
H494        H  0.04183050  0.06468426  0.60490017     0.07200
H495        H  0.25410695  0.78713986  0.51419884     0.02100
H496        H  0.16793179  0.74683713  0.50937597     0.02600
H497        H  0.20452009  0.76138242  0.59041364     0.06100
H498        H  0.08005184  0.79486463  0.64398989     0.05100
H499        H  0.00499986  0.74154226  0.66648493    -0.00700
H500        H  0.98515589  0.82669979  0.64263527     0.00800
H501        H  0.95374739  0.76085461  0.33097919     0.04500
H502        H  0.90195737  0.69523593  0.37066383     0.06400
H503        H  0.99467613  0.67751823  0.33641816     0.07300
C504        C  0.11040867  0.82906124  0.23611103    -0.22400
C505        C  0.13295872  0.89286678  0.21942692     0.09600
C506        C  0.19752131  0.89910117  0.17612706     0.10000
C507        C  0.22763003  0.84240679  0.14094742    -0.17300
C508        C  0.18509347  0.78556501  0.13805090    -0.27700
C509        C  0.13325733  0.77509538  0.19386201     0.18300
C510        C  0.07746507  0.94945851  0.22857680     0.12300
C511        C  0.23013435  0.96576722  0.15960076    -0.12000
H512        H  0.27151697  0.84929175  0.10257645     0.12600
C513        C  0.08248929  0.71728845  0.19647141    -0.22900
H514        H  0.06326361  0.82394510  0.27148861     0.08200
C515        C  0.04880117  0.98043262  0.17174011     0.04600
C516        C  0.02973447  0.04890445  0.17446496    -0.20100
C517        C  0.03151696  0.08214317  0.23602613    -0.12400
C518        C  0.01935935  0.04075603  0.29458832     0.13300
C519        C  0.05201981  0.97519694  0.29154166    -0.22800
C520        C  0.03441519  0.93964641  0.11174385    -0.05900
H521        H  0.02321915  0.07619740  0.12864715     0.14800
C522        C  0.99816219  0.06985431  0.36309092    -0.16100
H523        H  0.06310105  0.94789639  0.33730882     0.09100
H524        H  0.02496480  0.73548722  0.18797785     0.07000
H525        H  0.08273729  0.69406466  0.24705455     0.08200
H526        H  0.09818563  0.67956912  0.15726862     0.07200
H527        H  0.20121434  0.00772506  0.18787884     0.02100
H528        H  0.22650813  0.97612312  0.10487618     0.02600
H529        H  0.28916616  0.96445225  0.17224849     0.06100
H530        H  0.00921300  0.89227906  0.12836529     0.05100
H531        H  0.08745177  0.92872961  0.08287518    -0.00700
H532        H  0.99296695  0.96598356  0.08116258     0.00800
H533        H  0.96565790  0.11766381  0.35916963     0.04500
H534        H  0.04840465  0.07800748  0.39130070     0.06400
H535        H  0.96275858  0.03462566  0.39198143     0.07300
loop_ 
_geom_bond_atom_site_label_1 
_geom_bond_atom_site_label_2 
_geom_bond_distance 
_geom_bond_site_symmetry_2 
_ccdc_geom_bond_type 
C1            C2   1.522       .  S
C1            C7   1.579       .  S
C1            C5   1.529       .  S
C1          C517   1.541       .  S
C2            H9   1.065       .  S
C2            C3   1.316       .  D
C3            C4   1.600       .  S
C3           C49   1.569       .  S
C4            C8   1.582       .  S
C4            C6   1.611       .  S
C4           H10   1.106       .  S
C5           H11   1.080   1_455  S
C5            C6   1.353       .  D
C6           C13   1.583       .  S
C7           H12   1.079       .  S
C7            C8   1.391       .  D
C8          N205   1.499       .  S
C13          C15   1.515       .  S
C13          C17   1.520       .  S
C13          C16   1.593   1_455  S
C14          C41   1.595       .  S
C14          C18   1.504       .  S
C14          C20   1.525       .  S
C14          C19   1.608   1_455  S
C15          C23   1.376       .  A
C15          C18   1.402       .  A
C16          C27   1.404       .  A
C16          C19   1.435       .  A
C17          C31   1.384       .  A
C17          C20   1.401       .  A
C18          C21   1.375       .  A
C19          C25   1.406       .  A
C20          C28   1.383       .  A
C21          N22   1.335       .  A
C21          H34   1.081       .  S
N22         C167   1.416       .  S
N22          C23   1.340       .  A
C23          H24   1.078       .  S
C25          N26   1.378       .  A
C25          H35   1.081       .  S
N26          C27   1.368       .  A
N26         N108   1.441       .  S
C27          H33   1.080       .  S
C28          N29   1.349       .  A
C28          H30   1.081       .  S
N29          C85   1.437       .  S
N29          C31   1.347       .  A
C31          H32   1.081       .  S
C36          C37   1.539       .  S
C36          C42   1.578       .  S
C36          C40   1.533       .  S
C36         C485   1.534       .  S
C37          H44   1.083       .  S
C37          C38   1.329       .  D
C38          C39   1.625       .  S
C38         C142   1.595       .  S
C39          C43   1.574       .  S
C39          C41   1.620       .  S
C39          H45   1.106       .  S
C40          H46   1.084   1_455  S
C40          C41   1.352       .  D
C42          H47   1.074       .  S
C42          C43   1.380       .  D
C43         N228   1.499       .  S
C48         C132   1.557       .  S
C48          C50   1.560       .  S
C48          C52   1.548       .  S
C48          C51   1.584       .  S
C49          C53   1.524       .  S
C49          C55   1.499       .  S
C49          C54   1.660       .  S
C50          C58   1.390       .  A
C50          C53   1.367       .  A
C51          C62   1.422   1_545  A
C51          C54   1.429       .  A
C52          C66   1.389       .  A
C52          C55   1.369       .  A
C53          C56   1.386       .  A
C54          C60   1.441   1_545  A
C55          C63   1.361       .  A
C56          N57   1.352       .  A
C56          H69   1.061       .  S
N57          C76   1.468       .  S
N57          C58   1.369       .  A
C58          H59   1.079       .  S
C60          N61   1.384       .  A
C60          H70   1.069       .  S
N61          C62   1.380       .  A
N61         N155   1.468       .  S
C62          H68   1.082       .  S
C63          N64   1.350       .  A
C63          H65   1.064       .  S
N64          C88   1.447       .  S
N64          C66   1.362       .  A
C66          H67   1.080       .  S
C71          C72   1.559       .  S
C71          C77   1.542       .  S
C71          C75   1.549       .  S
C71         C453   1.521       .  S
C72          H79   1.082       .  S
C72          C73   1.367       .  D
C73          C74   1.627       .  S
C73          C96   1.609       .  S
C74          C78   1.628       .  S
C74          C76   1.555       .  S
C74          H80   1.110       .  S
C75          H81   1.087       .  S
C75          C76   1.345       .  D
C77          H82   1.083       .  S
C77          C78   1.346       .  D
C78         C189   1.601       .  S
C83          C84   1.554       .  S
C83          C89   1.532       .  S
C83          C87   1.561       .  S
C83         C421   1.535       .  S
C84          H91   1.085       .  S
C84          C85   1.373       .  D
C85          C86   1.527       .  S
C86          C90   1.546       .  S
C86          C88   1.537       .  S
C86          H92   1.111       .  S
C87          H93   1.077       .  S
C87          C88   1.365       .  D
C89          H94   1.059       .  S
C89          C90   1.325       .  D
C90         C213   1.508       .  S
C95         C179   1.590       .  S
C95          C97   1.524       .  S
C95          C99   1.518       .  S
C95          C98   1.574       .  S
C96         C100   1.509       .  S
C96         C102   1.512       .  S
C96         C101   1.622       .  S
C97         C105   1.376       .  A
C97         C100   1.404       .  A
C98         C109   1.392       .  A
C98         C101   1.438       .  A
C99         C113   1.375       .  A
C99         C102   1.405       .  A
C100        C103   1.373       .  A
C101        C107   1.416       .  A
C102        C110   1.371       .  A
C103        N104   1.340       .  A
C103        H116   1.079       .  S
N104        C123   1.425       .  S
N104        C105   1.344       .  A
C105        H106   1.079       .  S
C107        N108   1.383       .  A
C107        H117   1.082       .  S
N108        C109   1.364       .  A
C109        H115   1.081       .  S
C110        N111   1.333       .  A
C110        H112   1.079       .  S
N111        C135   1.419       .  S
N111        C113   1.341       .  A
C113        H114   1.074       .  S
C118        C119   1.575       .  S
C118        C124   1.545       .  S
C118        C122   1.563       .  S
C118        C380   1.539       .  S
C119        H126   1.084       .  S
C119        C120   1.385       .  D
C120        C121   1.558       .  S
C120        C143   1.546       .  S
C121        C125   1.512       .  S
C121        C123   1.517       .  S
C121        H127   1.110       .  S
C122        H128   1.080       .  S
C122        C123   1.350       .  D
C124        H129   1.087       .  S
C124        C125   1.331       .  D
C125        N198   1.425       .  S
C130        C131   1.573       .  S
C130        C136   1.556       .  S
C130        C134   1.553       .  S
C130        C348   1.539       .  S
C131        H138   1.085       .  S
C131        C132   1.378       .  D
C132        C133   1.565       .  S
C133        C137   1.524       .  S
C133        C135   1.516       .  S
C133        H139   1.111       .  S
C134        H140   1.080       .  S
C134        C135   1.350       .  D
C136        H141   1.086       .  S
C136        C137   1.343       .  D
C137        N221   1.441       .  S
C142        C144   1.513       .  S
C142        C146   1.521       .  S
C142        C145   1.685       .  S
C143        C147   1.542       .  S
C143        C149   1.544       .  S
C143        C148   1.552       .  S
C144        C152   1.363       .  A
C144        C147   1.370       .  A
C145        C156   1.454       .  A
C145        C148   1.435       .  A
C146        C160   1.380       .  A
C146        C149   1.363       .  A
C147        C150   1.390       .  A
C148        C154   1.402       .  A
C149        C157   1.374       .  A
C150        N151   1.362       .  A
C150        H163   1.079       .  S
N151        C170   1.453       .  S
N151        C152   1.354       .  A
C152        H153   1.055       .  S
C154        N155   1.365       .  A
C154        H164   1.082       .  S
N155        C156   1.403       .  A
C156        H162   1.080       .  S
C157        N158   1.362       .  A
C157        H159   1.077       .  S
N158        C182   1.453       .  S
N158        C160   1.348       .  A
C160        H161   1.055       .  S
C165        C166   1.536       .  S
C165        C171   1.555       .  S
C165        C169   1.567       .  S
C165        C316   1.529   1_554  S
C166        H173   1.086   1_455  S
C166        C167   1.353       .  D
C167        C168   1.515       .  S
C168        C172   1.546       .  S
C168        C170   1.528       .  S
C168        H174   1.112       .  S
C169        H175   1.074       .  S
C169        C170   1.367       .  D
C171        H176   1.073   1_554  S
C171        C172   1.356       .  D
C172        C190   1.526       .  S
C177        C178   1.565       .  S
C177        C183   1.539       .  S
C177        C181   1.533       .  S
C177        C284   1.521       .  S
C178        H185   1.080       .  S
C178        C179   1.382       .  D
C179        C180   1.596       .  S
C180        C184   1.611       .  S
C180        C182   1.550       .  S
C180        H186   1.110       .  S
C181        H187   1.088       .  S
C181        C182   1.337       .  D
C183        H188   1.084       .  S
C183        C184   1.346       .  D
C184        C212   1.574       .  S
C189        C191   1.514       .  S
C189        C193   1.581       .  S
C189        C192   1.672   1_554  S
C190        C194   1.511       .  S
C190        C196   1.535       .  S
C190        C195   1.557   1_554  S
C191        C199   1.373       .  A
C191        C194   1.372       .  A
C192        C203   1.461       .  A
C192        C195   1.425       .  A
C193        C207   1.412       .  A
C193        C196   1.377       .  A
C194        C197   1.371       .  A
C195        C201   1.399       .  A
C196        C204   1.389       .  A
C197        N198   1.339       .  A
C197        H210   1.074       .  S
N198        C199   1.345       .  A
C199        H200   1.069       .  S
C201        N202   1.363       .  A
C201        H211   1.078       .  S
N202        C203   1.406       .  A
N202        N225   1.469       .  S
C203        H209   1.081       .  S
C204        N205   1.363       .  A
C204        H206   1.072       .  S
N205        C207   1.383       .  A
C207        H208   1.078       .  S
C212        C214   1.534       .  S
C212        C216   1.577       .  S
C212        C215   1.653       .  S
C213        C217   1.501       .  S
C213        C219   1.527       .  S
C213        C218   1.581       .  S
C214        C222   1.386       .  A
C214        C217   1.372       .  A
C215        C226   1.457       .  A
C215        C218   1.421       .  A
C216        C230   1.413       .  A
C216        C219   1.366       .  A
C217        C220   1.372       .  A
C218        C224   1.412       .  A
C219        C227   1.387       .  A
C220        N221   1.336       .  A
C220        H233   1.073       .  S
N221        C222   1.357       .  A
C222        H223   1.072       .  S
C224        N225   1.360       .  A
C224        H234   1.073       .  S
N225        C226   1.402       .  A
C226        H232   1.082       .  S
C227        N228   1.361       .  A
C227        H229   1.064       .  S
N228        C230   1.383       .  A
C230        H231   1.079       .  S
N235        N236   1.301       .  A
N235        N241   1.313   1_554  A
N235       Mn264   2.147   1_454  S
N236        C243   1.336       .  A
N237        N239   1.312       .  A
N237        N238   1.320   1_565  A
N237       Mn253   2.183       .  S
N238        C244   1.355       .  A
N239        N240   1.314   1_565  A
N239       Mn264   2.171   1_455  S
N240        C244   1.337       .  A
N241        N242   1.334   1_556  A
N241       Mn253   2.273       .  S
N242        C243   1.378       .  A
C243        C508   1.486       .  S
C244        C412   1.459       .  S
N245        N251   1.314       .  A
N245        N246   1.307       .  A
N245       Mn275   2.168   1_455  S
N246        C254   1.341       .  A
N247        N248   1.326       .  A
N247        N249   1.315       .  A
N247       Mn253   2.204       .  S
N248        C255   1.362       .  A
N249        N250   1.310       .  A
N249       Mn275   2.193   1_455  S
N250        C255   1.350       .  A
N251        N252   1.330       .  A
N251       Mn253   2.260       .  S
N252        C254   1.371       .  A
Mn253      Cl277   2.602   1_455  S
C254        C476   1.482       .  S
C255        C325   1.489       .  S
N256        N257   1.326   1_565  A
N256        N262   1.307       .  A
N256       Mn264   2.189       .  S
N257        C265   1.362       .  A
N258        N260   1.306   1_556  A
N258        N259   1.313   1_556  A
N258       Mn276   2.156       .  S
N259        C266   1.342       .  A
N260        N261   1.318       .  A
N260       Mn264   2.189   1_554  S
N261        C266   1.355       .  A
N262        N263   1.312       .  A
N262       Mn276   2.194       .  S
N263        C265   1.346   1_565  A
Mn264      Cl277   2.451       .  S
C265        C357   1.474       .  S
C266        C444   1.487       .  S
N267        N268   1.330       .  A
N267        N273   1.311       .  A
N267       Mn275   2.237       .  S
N268        C278   1.366       .  A
N269        N270   1.309       .  A
N269        N271   1.301       .  A
N269       Mn276   2.160       .  S
N270        C279   1.351       .  A
N271        N272   1.319       .  A
N271       Mn275   2.153       .  S
N272        C279   1.356       .  A
N273        N274   1.308       .  A
N273       Mn276   2.181       .  S
N274        C278   1.347       .  A
Mn275      Cl277   2.483       .  S
Mn276      Cl277   2.511       .  S
C278        C389   1.486       .  S
C279        C293   1.474       .  S
C280        C281   1.397       .  A
C280        C285   1.386       .  A
C280        H290   1.083       .  S
C281        C282   1.427       .  A
C281        C286   1.490       .  S
C282        C287   1.509       .  S
C282        C283   1.407       .  A
C283        C284   1.403       .  A
C283        H288   1.081       .  S
C284        C285   1.429       .  A
C285        C289   1.520       .  S
C286        C291   1.414       .  A
C286        C295   1.408       .  A
C287        H303   1.106       .  S
C287        H304   1.110       .  S
C287        H305   1.111       .  S
C289        H300   1.106       .  S
C289        H301   1.111       .  S
C289        H302   1.108       .  S
C291        C296   1.506       .  S
C291        C292   1.402       .  A
C292        C293   1.407       .  A
C292        H297   1.084       .  S
C293        C294   1.413       .  A
C294        C298   1.514       .  S
C294        C295   1.387       .  A
C295        H299   1.082       .  S
C296        H306   1.111       .  S
C296        H307   1.110       .  S
C296        H308   1.109       .  S
C298        H309   1.106       .  S
C298        H310   1.108       .  S
C298        H311   1.104       .  S
C312        C313   1.397       .  A
C312        C317   1.397       .  A
C312        H322   1.079       .  S
C313        C314   1.395       .  A
C313        C318   1.480       .  S
C314        C319   1.494   1_455  S
C314        C315   1.404       .  A
C315        C316   1.410       .  A
C315        H320   1.082       .  S
C316        C317   1.411       .  A
C317        C321   1.485       .  S
C318        C323   1.408       .  A
C318        C327   1.416       .  A
C319        H335   1.099       .  S
C319        H336   1.110       .  S
C319        H337   1.104   1_655  S
C321        H332   1.110   1_556  S
C321        H333   1.105   1_455  S
C321        H334   1.104       .  S
C323        C328   1.502       .  S
C323        C324   1.412       .  A
C324        C325   1.408       .  A
C324        H329   1.077       .  S
C325        C326   1.399       .  A
C326        C330   1.502       .  S
C326        C327   1.398       .  A
C327        H331   1.074       .  S
C328        H338   1.104       .  S
C328        H339   1.106       .  S
C328        H340   1.106       .  S
C330        H341   1.111       .  S
C330        H342   1.111       .  S
C330        H343   1.110       .  S
C344        C345   1.412       .  A
C344        C349   1.404       .  A
C344        H354   1.079       .  S
C345        C346   1.419       .  A
C345        C350   1.508       .  S
C346        C351   1.509       .  S
C346        C347   1.405       .  A
C347        C348   1.410       .  A
C347        H352   1.079       .  S
C348        C349   1.412       .  A
C349        C353   1.510       .  S
C350        C355   1.422       .  A
C350        C359   1.408       .  A
C351        H367   1.110       .  S
C351        H368   1.107       .  S
C351        H369   1.111       .  S
C353        H364   1.107       .  S
C353        H365   1.109       .  S
C353        H366   1.110   1_545  S
C355        C360   1.507       .  S
C355        C356   1.407       .  A
C356        C357   1.401       .  A
C356        H361   1.085       .  S
C357        C358   1.413       .  A
C358        C362   1.508       .  S
C358        C359   1.402       .  A
C359        H363   1.081       .  S
C360        H370   1.110       .  S
C360        H371   1.111       .  S
C360        H372   1.109       .  S
C362        H373   1.108   1_545  S
C362        H374   1.110       .  S
C362        H375   1.111       .  S
C376        C377   1.412       .  A
C376        C381   1.413       .  A
C376        H386   1.080       .  S
C377        C378   1.423       .  A
C377        C382   1.507       .  S
C378        C383   1.510       .  S
C378        C379   1.401   1_556  A
C379        C380   1.403       .  A
C379        H384   1.078       .  S
C380        C381   1.420   1_554  A
C381        C385   1.507   1_556  S
C382        C387   1.422       .  A
C382        C391   1.406       .  A
C383        H399   1.097       .  S
C383        H400   1.107       .  S
C383        H401   1.111   1_556  S
C385        H396   1.109       .  S
C385        H397   1.111   1_554  S
C385        H398   1.110       .  S
C387        C392   1.494       .  S
C387        C388   1.413       .  A
C388        C389   1.401       .  A
C388        H393   1.083       .  S
C389        C390   1.410       .  A
C390        C394   1.494       .  S
C390        C391   1.408       .  A
C391        H395   1.083       .  S
C392        H402   1.099       .  S
C392        H403   1.106       .  S
C392        H404   1.109       .  S
C394        H405   1.110       .  S
C394        H406   1.110       .  S
C394        H407   1.111       .  S
C408        C409   1.398       .  A
C408        C413   1.396       .  A
C408        H418   1.083       .  S
C409        C410   1.406       .  A
C409        C414   1.496       .  S
C410        C415   1.497       .  S
C410        C411   1.401       .  A
C411        C412   1.409       .  A
C411        H416   1.084       .  S
C412        C413   1.425       .  A
C413        C417   1.511       .  S
C414        C419   1.405       .  A
C414        C423   1.408       .  A
C415        H431   1.110       .  S
C415        H432   1.109       .  S
C415        H433   1.110       .  S
C417        H428   1.110       .  S
C417        H429   1.111   1_455  S
C417        H430   1.099   1_556  S
C419        C424   1.494       .  S
C419        C420   1.414       .  A
C420        C421   1.413       .  A
C420        H425   1.078       .  S
C421        C422   1.404       .  A
C422        C426   1.487       .  S
C422        C423   1.393       .  A
C423        H427   1.080       .  S
C424        H434   1.106       .  S
C424        H435   1.098       .  S
C424        H436   1.109       .  S
C426        H437   1.107       .  S
C426        H438   1.110       .  S
C426        H439   1.107       .  S
C440        C441   1.391       .  A
C440        C445   1.382       .  A
C440        H450   1.085   1_554  S
C441        C442   1.415       .  A
C441        C446   1.479   1_565  S
C442        C447   1.506       .  S
C442        C443   1.406       .  A
C443        C444   1.409       .  A
C443        H448   1.085       .  S
C444        C445   1.431       .  A
C445        C449   1.510   1_554  S
C446        C451   1.415       .  A
C446        C455   1.398       .  A
C447        H463   1.110       .  S
C447        H464   1.108   1_565  S
C447        H465   1.110       .  S
C449        H460   1.108       .  S
C449        H461   1.111       .  S
C449        H462   1.085       .  S
C451        C456   1.508       .  S
C451        C452   1.404       .  A
C452        C453   1.410       .  A
C452        H457   1.080       .  S
C453        C454   1.426       .  A
C454        C458   1.513       .  S
C454        C455   1.386       .  A
C455        H459   1.084       .  S
C456        H466   1.111       .  S
C456        H467   1.108       .  S
C456        H468   1.110       .  S
C458        H469   1.111   1_554  S
C458        H470   1.109   1_554  S
C458        H471   1.108       .  S
C472        C473   1.399       .  A
C472        C477   1.408       .  A
C472        H482   1.084       .  S
C473        C474   1.423       .  A
C473        C478   1.487       .  S
C474        C479   1.508       .  S
C474        C475   1.407       .  A
C475        C476   1.402       .  A
C475        H480   1.084       .  S
C476        C477   1.421       .  A
C477        C481   1.501   1_565  S
C478        C483   1.416       .  A
C478        C487   1.402       .  A
C479        H495   1.110       .  S
C479        H496   1.107       .  S
C479        H497   1.110       .  S
C481        H492   1.110       .  S
C481        H493   1.107       .  S
C481        H494   1.106       .  S
C483        C488   1.482       .  S
C483        C484   1.395   1_455  A
C484        C485   1.385   1_655  A
C484        H489   1.080       .  S
C485        C486   1.423   1_455  A
C486        C490   1.503       .  S
C486        C487   1.411   1_655  A
C487        H491   1.083       .  S
C488        H498   1.104       .  S
C488        H499   1.108       .  S
C488        H500   1.102   1_455  S
C490        H501   1.111       .  S
C490        H502   1.110       .  S
C490        H503   1.107       .  S
C504        C505   1.389       .  A
C504        C509   1.400       .  A
C504        H514   1.085       .  S
C505        C506   1.424       .  A
C505        C510   1.487       .  S
C506        C511   1.507       .  S
C506        C507   1.405       .  A
C507        C508   1.400       .  A
C507        H512   1.085       .  S
C508        C509   1.435       .  A
C509        C513   1.503       .  S
C510        C515   1.401       .  A
C510        C519   1.399       .  A
C511        H527   1.106   1_565  S
C511        H528   1.111       .  S
C511        H529   1.110       .  S
C513        H524   1.111       .  S
C513        H525   1.107       .  S
C513        H526   1.101       .  S
C515        C520   1.482       .  S
C515        C516   1.397   1_565  A
C516        C517   1.392       .  A
C516        H521   1.070       .  S
C517        C518   1.440       .  A
C518        C522   1.503   1_455  S
C518        C519   1.415   1_545  A
C519        H523   1.084       .  S
C520        H530   1.110       .  S
C520        H531   1.106       .  S
C520        H532   1.107   1_455  S
C522        H533   1.107       .  S
C522        H534   1.111   1_655  S
C522        H535   1.111       .  S
