geometry optimzed in LAMMPS
_audit_creation_date              2020-12-01 
_audit_creation_method            'lammps2cif' 
_symmetry_space_group_name_H-M    'P1' 
_symmetry_Int_Tables_number       1 
_symmetry_cell_setting            triclinic 
loop_ 
_symmetry_equiv_pos_as_xyz 
  x,y,z 
_cell_length_a                    25.21265745 
_cell_length_b                    36.411898502196316 
_cell_length_c                    44.11908331128911 
_cell_angle_alpha                 90.00172667035228 
_cell_angle_beta                  90.0004321427863 
_cell_angle_gamma                 90.00062930805709 
loop_ 
_atom_site_label 
_atom_site_type_symbol 
_atom_site_fract_x 
_atom_site_fract_y 
_atom_site_fract_z 
_atom_site_charge 
C1          C  0.24431751  0.23189600  0.97220765     0.05100
C2          C  0.24662786  0.27056071  0.97216619     0.05000
C3          C  0.24663532  0.28967996  0.99971332    -0.15500
C4          C  0.24452076  0.27066081  0.02729324     0.05100
C5          C  0.24209773  0.23198913  0.02735572     0.05000
C6          C  0.24194498  0.21288306  0.99978983    -0.15500
H7          H  0.24028992  0.18309273  0.99980357     0.07100
H8          H  0.24854539  0.31945211  0.99969301     0.07100
O9          O  0.18596794  0.12258094  0.25767258    -0.55000
C10         C  0.34172148  0.12082884  0.24298347     0.77600
O11         O  0.25245858  0.03888556  0.19250765    -0.56200
C12         C  0.14229164  0.11906888  0.24388995     0.77600
C13         C  0.23983524  0.13957189  0.15885778     0.80000
Cd14       Cd  0.24192784  0.10010949  0.21560544     1.37500
O15         O  0.29813087  0.13388339  0.25214710    -0.55000
O16         O  0.24708610  0.15592122  0.18376898    -0.53800
C17         C  0.24303507  0.02083071  0.21637292     0.79900
O18         O  0.23341629  0.10519775  0.15992362    -0.56200
O19         O  0.33947883  0.09828518  0.22123710    -0.54700
O20         O  0.14435084  0.10655198  0.21718529    -0.54700
O21         O  0.23326152  0.03920945  0.24003898    -0.53800
O22         O  0.30830639  0.37921963  0.25761681    -0.55000
C23         C  0.15219130  0.38081514  0.24332885     0.77600
O24         O  0.24109065  0.46233026  0.19283738    -0.56200
C25         C  0.35126210  0.38011882  0.24284750     0.77600
C26         C  0.25012860  0.36281743  0.15860960     0.80000
Cd27       Cd  0.25169223  0.40110244  0.21564925     1.37500
O28         O  0.19531534  0.36558080  0.25079509    -0.55000
O29         O  0.23928574  0.34668953  0.18318168    -0.53800
C30         C  0.25253948  0.48030579  0.21645373     0.79900
O31         O  0.26188852  0.39648297  0.16015966    -0.56200
O32         O  0.15486099  0.40560219  0.22333155    -0.54700
O33         O  0.34844732  0.39074003  0.21561833    -0.54700
O34         O  0.26356303  0.46186194  0.23991591    -0.53800
O35         O  0.43588090  0.11813122  0.24768712    -0.55000
C36         C  0.09182701  0.12933064  0.25807761     0.77600
O37         O  0.98392959  0.21219363  0.30834186    -0.56200
C38         C  0.39233904  0.13120217  0.25692490     0.77600
C39         C  0.99156052  0.11172213  0.34248924     0.80000
Cd40       Cd  0.99241199  0.15058918  0.28558977     1.37500
O41         O  0.04825906  0.12643409  0.24410040    -0.55000
O42         O  0.48167771  0.09559061  0.31639405    -0.53800
C43         C  0.49432151  0.23020108  0.28363535     0.79900
O44         O  0.00271809  0.14549100  0.34109700    -0.56200
O45         O  0.08972323  0.14179458  0.28479072    -0.54700
O46         O  0.39463554  0.15355544  0.27881857    -0.54700
O47         O  0.00318608  0.21114682  0.26083598    -0.53800
O48         O  0.05839744  0.38522889  0.24953596    -0.55000
C49         C  0.40187256  0.36951526  0.25663020     0.77600
O50         O  0.49042175  0.28876284  0.30761514    -0.56200
C51         C  0.10159997  0.37018797  0.25712435     0.77600
C52         C  0.50686133  0.38891349  0.34057860     0.80000
Cd53       Cd  0.50168589  0.34958223  0.28406672     1.37500
O54         O  0.44492590  0.37089040  0.24197815    -0.55000
O55         O  0.99695919  0.40441300  0.31672354    -0.53800
C56         C  0.99615701  0.27011173  0.28417484     0.79900
O57         O  0.51326560  0.35453352  0.33945171    -0.56200
O58         O  0.40464824  0.35866222  0.28379848    -0.54700
O59         O  0.09900278  0.34545539  0.27716542    -0.54700
O60         O  0.50429717  0.28849603  0.25946738    -0.53800
C61         C  0.51022171  0.48121518  0.47189403     0.05100
C62         C  0.49281937  0.01851364  0.47219974     0.05000
C63         C  0.49414319  0.03753392  0.49978148    -0.15500
C64         C  0.49598318  0.01840362  0.52729484     0.05100
C65         C  0.50820968  0.48050499  0.52701705     0.05000
C66         C  0.50892825  0.46178265  0.49929080    -0.15500
H67         H  0.50841398  0.43197477  0.49902977     0.07100
H68         H  0.49373838  0.06735700  0.49983532     0.07100
O69         O  0.31083694  0.12076653  0.74281134    -0.55000
C70         C  0.15490572  0.11919343  0.75706916     0.77600
O71         O  0.24335753  0.03814881  0.80811501    -0.56200
C72         C  0.35400042  0.11949600  0.75735402     0.77600
C73         C  0.25227797  0.13915929  0.84113566     0.80000
Cd74       Cd  0.25431428  0.09923919  0.78482899     1.37500
O75         O  0.19836184  0.13271830  0.74810317    -0.55000
O76         O  0.24038346  0.15438101  0.81632390    -0.53800
C77         C  0.25293392  0.01998492  0.78432066     0.79900
O78         O  0.26560884  0.10573304  0.84012997    -0.56200
O79         O  0.15728596  0.09633131  0.77858550    -0.54700
O80         O  0.35142714  0.10886734  0.78459323    -0.54700
O81         O  0.26347098  0.03824386  0.76070803    -0.53800
O82         O  0.19861313  0.36871013  0.74742482    -0.55000
C83         C  0.35427596  0.38183897  0.75657686     0.77600
O84         O  0.24477651  0.46329670  0.80753887    -0.56200
C85         C  0.15491099  0.38120298  0.75694963     0.77600
C86         C  0.25482734  0.36272674  0.84075492     0.80000
Cd87       Cd  0.25459851  0.40219471  0.78416620     1.37500
O88         O  0.31095966  0.37992787  0.74223453    -0.55000
O89         O  0.24617591  0.34663546  0.81587557    -0.53800
C90         C  0.25322497  0.48152436  0.78365400     0.79900
O91         O  0.26367030  0.39684774  0.83970277    -0.56200
O92         O  0.35192566  0.39354680  0.78352415    -0.54700
O93         O  0.15703171  0.40352389  0.77885871    -0.54700
O94         O  0.26243586  0.46331087  0.75982369    -0.53800
O95         O  0.06075057  0.11649832  0.75271697    -0.55000
C96         C  0.40446824  0.12984028  0.74326593     0.77600
O97         O  0.51568135  0.21135068  0.69223022    -0.56200
C98         C  0.10418117  0.12961038  0.74334269     0.77600
C99         C  0.50195543  0.11052371  0.65871820     0.80000
Cd100      Cd  0.50355055  0.15016901  0.71519179     1.37500
O101        O  0.44776703  0.12858408  0.75769667    -0.55000
O102        O  0.00813389  0.09388055  0.68558950    -0.53800
C103        C  0.00348426  0.22964059  0.71730632     0.79900
O104        O  0.48960796  0.14410442  0.66008901    -0.56200
O105        O  0.40679304  0.14047787  0.71602839    -0.54700
O106        O  0.10162820  0.15224001  0.72166389    -0.54700
O107        O  0.49222977  0.21114223  0.73912947    -0.53800
O108        O  0.44794575  0.37231086  0.75708501    -0.55000
C109        C  0.10429207  0.37033547  0.74329278     0.77600
O110        O  0.00542447  0.28790734  0.69278246    -0.56200
C111        C  0.40465596  0.37084311  0.74267582     0.77600
C112        C  0.00678654  0.38825147  0.65936724     0.80000
Cd113      Cd  0.00444556  0.34934966  0.71622757     1.37500
O114        O  0.06061693  0.38281961  0.75285404    -0.55000
O115        O  0.51812157  0.40345107  0.68271111    -0.53800
C116        C  0.50410505  0.26973298  0.71577754     0.77900
O117        O  0.49001455  0.35483758  0.65997542    -0.56200
O118        O  0.10211433  0.34801486  0.72138305    -0.54700
O119        O  0.40691873  0.35926332  0.71569468    -0.54700
O120        O  0.00176915  0.28841639  0.74149308    -0.53800
C121        C  0.00776965  0.40754874  0.63100958    -0.15700
C122        C  0.00832410  0.42366111  0.60713938     0.08300
C123        C  0.00874911  0.44262421  0.57923247     0.10200
C124        C  0.00902790  0.45920376  0.55557909    -0.16600
C125        C  0.50089283  0.09081187  0.63056549    -0.15700
C126        C  0.49980136  0.07443209  0.60683188     0.08300
C127        C  0.49843499  0.05533545  0.57900851     0.10200
C128        C  0.49728536  0.03881235  0.55534466    -0.16600
C129        C  0.51065424  0.46101866  0.44373880    -0.15700
C130        C  0.51065250  0.44437595  0.42012547     0.08300
C131        C  0.51006705  0.42501698  0.39242506     0.10200
C132        C  0.50896049  0.40850861  0.36875665    -0.16600
C133        C  0.99326136  0.03962710  0.44569475    -0.15700
C134        C  0.99229940  0.05651024  0.42220430     0.08300
C135        C  0.99156042  0.07593313  0.39453086     0.10200
C136        C  0.99134022  0.09234245  0.37080378    -0.16600
C137        C  0.24036761  0.21152096  0.05541699    -0.15700
C138        C  0.23944960  0.19483212  0.07903400     0.08300
C139        C  0.23899274  0.17555162  0.10682923     0.10200
C140        C  0.23911687  0.15914962  0.13058871    -0.16600
C141        C  0.24538140  0.29124352  0.05524454    -0.15700
C142        C  0.24642040  0.30807537  0.07875157     0.08300
C143        C  0.24784174  0.32743249  0.10643148     0.10200
C144        C  0.24902018  0.34371905  0.13019502    -0.16600
C145        C  0.24506306  0.21134662  0.94422348    -0.15700
C146        C  0.24639811  0.19468260  0.92063170     0.08300
C147        C  0.24853594  0.17541497  0.89290772     0.10200
C148        C  0.25044334  0.15892142  0.86924700    -0.16600
C149        C  0.24924507  0.29100151  0.94414006    -0.15700
C150        C  0.25125762  0.30761335  0.92052586     0.08300
C151        C  0.25319543  0.32679156  0.89273771     0.10200
C152        C  0.25430854  0.34315358  0.86898814    -0.16600
C153        C  0.25002992  0.73162954  0.97289886     0.05100
C154        C  0.24824653  0.77030821  0.97292695     0.05000
C155        C  0.24754506  0.78934897  0.00049412    -0.15500
C156        C  0.24859599  0.77026366  0.02804533     0.05100
C157        C  0.25035091  0.73156749  0.02802688     0.05000
C158        C  0.25104457  0.71253919  0.00044434    -0.15500
H159        H  0.25237095  0.68272427  0.00041385     0.07100
H160        H  0.24618759  0.81915537  0.00050718     0.07100
O161        O  0.19750218  0.63457833  0.25201225    -0.55000
C162        C  0.35298182  0.62110826  0.24319421     0.77600
O163        O  0.24168215  0.53871422  0.19294372    -0.56200
C164        C  0.15413382  0.62006487  0.24398896     0.77600
C165        C  0.25243672  0.63846439  0.15903901     0.80000
Cd166      Cd  0.25338812  0.59982213  0.21599047     1.37500
O167        O  0.31038862  0.62056500  0.25832000    -0.55000
O168        O  0.23640852  0.65342645  0.18319677    -0.53800
C169        C  0.25295312  0.52054324  0.21648416     0.79900
O170        O  0.26873794  0.60573526  0.16092767    -0.56200
O171        O  0.34972286  0.61198107  0.21562658    -0.54700
O172        O  0.15648229  0.59619144  0.22322097    -0.54700
O173        O  0.26455376  0.53880437  0.23993585    -0.53800
O174        O  0.30019846  0.86516658  0.25072229    -0.55000
C175        C  0.14396157  0.88073684  0.24387849     0.77600
O176        O  0.25287677  0.96240935  0.19268876    -0.56200
C177        C  0.34319775  0.88057428  0.24322701     0.77600
C178        C  0.24449048  0.86285065  0.15921320     0.80000
Cd179      Cd  0.24340997  0.90133771  0.21615889     1.37500
O180        O  0.18647169  0.88224966  0.25903258    -0.55000
O181        O  0.25681508  0.84704618  0.18370893    -0.53800
C182        C  0.24327429  0.98058680  0.21647211     0.79900
O183        O  0.23151320  0.89631343  0.16079116    -0.56200
O184        O  0.14717005  0.88878672  0.21607784    -0.54700
O185        O  0.34022044  0.90561730  0.22346377    -0.54700
O186        O  0.23376314  0.96233450  0.24024047    -0.53800
O187        O  0.44629551  0.63185100  0.24181087    -0.55000
C188        C  0.10354962  0.63047841  0.25794852     0.77600
O189        O  0.99663217  0.71213621  0.30875071    -0.56200
C190        C  0.40372053  0.63156976  0.25693442     0.77600
C191        C  0.00736846  0.61242486  0.34182436     0.80000
Cd192      Cd  0.00356692  0.65118431  0.28497536     1.37500
O193        O  0.06027213  0.61598270  0.24980672    -0.55000
O194        O  0.50666641  0.59581103  0.31621070    -0.53800
C195        C  0.50030674  0.73041120  0.28325556     0.79900
O196        O  0.00730013  0.64709540  0.34078620    -0.56200
O197        O  0.10096419  0.65446039  0.27861929    -0.54700
O198        O  0.40716519  0.64056659  0.28452165    -0.54700
O199        O  0.00516800  0.71211092  0.26020195    -0.53800
O200        O  0.05104951  0.86859404  0.24253972    -0.55000
C201        C  0.39402341  0.86997885  0.25676883     0.77600
O202        O  0.49163546  0.78857923  0.30735359    -0.56200
C203        C  0.09342587  0.87017165  0.25779591     0.77600
C204        C  0.49188201  0.88771298  0.34078128     0.80000
Cd205      Cd  0.49427789  0.84968874  0.28369151     1.37500
O206        O  0.43691106  0.88549282  0.24927462    -0.55000
O207        O  0.98818331  0.90485740  0.31718007    -0.53800
C208        C  0.99795623  0.77050581  0.28443984     0.79900
O209        O  0.49778299  0.85329875  0.33945275    -0.56200
O210        O  0.39719610  0.84492916  0.27651065    -0.54700
O211        O  0.09001482  0.86218258  0.28560697    -0.54700
O212        O  0.50299007  0.78898651  0.25898508    -0.53800
C213        C  0.49343085  0.97980964  0.47214025     0.05100
C214        C  0.51081574  0.51992183  0.47222113     0.05000
C215        C  0.51018020  0.53863134  0.49995595    -0.15500
C216        C  0.50886719  0.51919762  0.52734476     0.05100
C217        C  0.49651934  0.97971039  0.52721105     0.05000
C218        C  0.49529721  0.96068421  0.49964683    -0.15500
H219        H  0.49573110  0.93087040  0.49960393     0.07100
H220        H  0.51060236  0.56844749  0.50022863     0.07100
O221        O  0.30801593  0.62195665  0.74204973    -0.55000
C222        C  0.15190852  0.62101047  0.75728725     0.77600
O223        O  0.24295443  0.53972260  0.80765718    -0.56200
C224        C  0.35115378  0.62076283  0.75662804     0.77600
C225        C  0.25198183  0.64019013  0.84116568     0.80000
Cd226      Cd  0.25177386  0.60098017  0.78450204     1.37500
O227        O  0.19495779  0.63595791  0.74928989    -0.55000
O228        O  0.24125136  0.65613613  0.81648964    -0.53800
C229        C  0.25247595  0.52176969  0.78373975     0.79900
O230        O  0.26259760  0.60632482  0.83987885    -0.56200
O231        O  0.15477820  0.59684779  0.77779597    -0.54700
O232        O  0.34852449  0.61048726  0.78394707    -0.54700
O233        O  0.26141566  0.54024028  0.76001426    -0.53800
O234        O  0.19229974  0.86493272  0.74953688    -0.55000
C235        C  0.34885132  0.87986373  0.75708884     0.77600
O236        O  0.24115210  0.96168475  0.80789209    -0.56200
C237        C  0.14937403  0.88052882  0.75684111     0.77600
C238        C  0.24741843  0.86181510  0.84125173     0.80000
Cd239      Cd  0.24919798  0.90054692  0.78441723     1.37500
O240        O  0.30610668  0.88010359  0.74210073    -0.55000
O241        O  0.23987845  0.84536611  0.81641730    -0.53800
C242        C  0.25173142  0.97975356  0.78419119     0.79900
O243        O  0.25573776  0.89598943  0.84004703    -0.56200
O244        O  0.34583714  0.88927072  0.78461696    -0.54700
O245        O  0.15239063  0.90560705  0.77656645    -0.54700
O246        O  0.26109374  0.96140990  0.76044109    -0.53800
O247        O  0.05815638  0.61616116  0.75136802    -0.55000
C248        C  0.40176828  0.63080887  0.74262025     0.77600
O249        O  0.50785361  0.71188583  0.69180200    -0.56200
C250        C  0.10121211  0.63109742  0.74337282     0.77600
C251        C  0.50393933  0.61089458  0.65892798     0.80000
Cd252      Cd  0.50159744  0.65064620  0.71529697     1.37500
O253        O  0.44475387  0.62976833  0.75733911    -0.55000
O254        O  0.01303150  0.59500924  0.68397268    -0.53800
C255        C  0.99948800  0.72953403  0.71643725     0.79900
O256        O  0.49544803  0.64507160  0.65970483    -0.56200
O257        O  0.40462810  0.64097016  0.71527180    -0.54700
O258        O  0.09840418  0.65506511  0.72270838    -0.54700
O259        O  0.49328508  0.71145401  0.73988062    -0.53800
O260        O  0.44224731  0.86928686  0.75810343    -0.55000
C261        C  0.09861191  0.86992697  0.74322518     0.77600
O262        O  0.00695003  0.78805506  0.69276026    -0.56200
C263        C  0.39941605  0.86929938  0.74320396     0.77600
C264        C  0.99893276  0.88739129  0.65953825     0.80000
Cd265      Cd  0.99862336  0.84898127  0.71639164     1.37500
O266        O  0.05553554  0.88504068  0.75093990    -0.55000
O267        O  0.50730099  0.90443362  0.68334671    -0.53800
C268        C  0.49971234  0.77013445  0.71599384     0.77900
O269        O  0.49137271  0.85363908  0.65995958    -0.56200
O270        O  0.09570287  0.84510568  0.72327232    -0.54700
O271        O  0.40236934  0.85982886  0.71569646    -0.54700
O272        O  0.99017109  0.78789521  0.74061066    -0.53800
C273        C  0.99896299  0.90659400  0.63119783    -0.15700
C274        C  0.99890645  0.92288721  0.60745023     0.08300
C275        C  0.99869103  0.94220386  0.57977125     0.10200
C276        C  0.99826617  0.95905024  0.55628853    -0.16600
C277        C  0.50521999  0.59114392  0.63081147    -0.15700
C278        C  0.50623851  0.57475368  0.60709110     0.08300
C279        C  0.50730222  0.55571773  0.57924867     0.10200
C280        C  0.50808296  0.53933305  0.55552270    -0.16600
C281        C  0.49224319  0.95929946  0.44415883    -0.15700
C282        C  0.49147636  0.94243952  0.42066397     0.08300
C283        C  0.49100427  0.92303573  0.39299766     0.10200
C284        C  0.49110000  0.90675138  0.36922509    -0.16600
C285        C  0.01009561  0.53980760  0.44481017    -0.15700
C286        C  0.00998986  0.55688892  0.42140221     0.08300
C287        C  0.00953685  0.57655513  0.39382860     0.10200
C288        C  0.00878865  0.59306996  0.37014937    -0.16600
C289        C  0.25128859  0.71099222  0.05600402    -0.15700
C290        C  0.25180847  0.69403422  0.07946767     0.08300
C291        C  0.25212587  0.67440853  0.10705873     0.10200
C292        C  0.25225930  0.65785927  0.13072264    -0.16600
C293        C  0.24778215  0.79079187  0.05602837    -0.15700
C294        C  0.24702113  0.80768431  0.07951333     0.08300
C295        C  0.24605260  0.82717986  0.10714185     0.10200
C296        C  0.24525301  0.84360373  0.13085202    -0.16600
C297        C  0.25082881  0.71120639  0.94486045    -0.15700
C298        C  0.25139072  0.69475769  0.92116048     0.08300
C299        C  0.25185052  0.67583729  0.89325701     0.10200
C300        C  0.25202124  0.65964920  0.86943304    -0.16600
C301        C  0.24726936  0.79080581  0.94492761    -0.15700
C302        C  0.24673843  0.80735083  0.92127575     0.08300
C303        C  0.24652884  0.82635359  0.89341378     0.10200
C304        C  0.24673239  0.84252497  0.86958639    -0.16600
C305        C  0.74211011  0.23234623  0.97257737     0.05100
C306        C  0.74444832  0.27101194  0.97258318     0.05000
C307        C  0.74473998  0.29007187  0.00013939    -0.15500
C308        C  0.74289842  0.27100224  0.02768621     0.05100
C309        C  0.74045405  0.23232483  0.02770876     0.05000
C310        C  0.73999991  0.21328777  0.00012738    -0.15500
H311        H  0.73834973  0.18347402  0.00010356     0.07100
H312        H  0.74669324  0.31985581  0.00015134     0.07100
O313        O  0.68607231  0.12199609  0.25791820    -0.55000
C314        C  0.84216525  0.12084797  0.24351535     0.77600
O315        O  0.75452361  0.03920032  0.19243703    -0.56200
C316        C  0.64270359  0.11941346  0.24368400     0.77600
C317        C  0.74043790  0.13981302  0.15912351     0.80000
Cd318      Cd  0.74260264  0.10022593  0.21576357     1.37500
O319        O  0.79850251  0.13390378  0.25257966    -0.55000
O320        O  0.74931873  0.15596119  0.18395481    -0.53800
C321        C  0.74394864  0.02091028  0.21601851     0.79900
O322        O  0.73262315  0.10557937  0.16022429    -0.56200
O323        O  0.84008701  0.09841023  0.22168977    -0.54700
O324        O  0.64521132  0.10768468  0.21675217    -0.54700
O325        O  0.73289438  0.03906452  0.23962068    -0.53800
O326        O  0.80903583  0.37981199  0.25801957    -0.55000
C327        C  0.65239980  0.38081815  0.24341711     0.77600
O328        O  0.74237785  0.46223621  0.19278433    -0.56200
C329        C  0.85178382  0.37982117  0.24303280     0.77600
C330        C  0.75028012  0.36278010  0.15906900     0.80000
Cd331      Cd  0.75216416  0.40114089  0.21597736     1.37500
O332        O  0.69567081  0.36642866  0.25170509    -0.55000
O333        O  0.73981368  0.34662909  0.18368991    -0.53800
C334        C  0.75328917  0.48038408  0.21638366     0.79900
O335        O  0.76193365  0.39646958  0.16054064    -0.56200
O336        O  0.65506217  0.40478702  0.22275513    -0.54700
O337        O  0.84877072  0.38968639  0.21561796    -0.54700
O338        O  0.76369003  0.46210708  0.24002454    -0.53800
O339        O  0.93625121  0.11788245  0.24856264    -0.55000
C340        C  0.59204458  0.12977576  0.25760083     0.77600
O341        O  0.48638112  0.21238733  0.30779643    -0.56200
C342        C  0.89269321  0.13108956  0.25764454     0.77600
C343        C  0.49015189  0.11167297  0.34129555     0.80000
Cd344      Cd  0.49215321  0.15090143  0.28463236     1.37500
O345        O  0.54884558  0.12771096  0.24316253    -0.55000
O346        O  0.98077019  0.09574149  0.31783826    -0.53800
C347        C  0.99421182  0.22988512  0.28441059     0.79900
O348        O  0.49950026  0.14572872  0.34025865    -0.56200
O349        O  0.58939015  0.14145769  0.28453860    -0.54700
O350        O  0.89490618  0.15344547  0.27954045    -0.54700
O351        O  0.50085350  0.21158420  0.25973544    -0.53800
O352        O  0.55836170  0.38443247  0.24858801    -0.55000
C353        C  0.90236743  0.36912105  0.25682224     0.77600
O354        O  0.98797570  0.28863191  0.30795724    -0.56200
C355        C  0.60164413  0.37020388  0.25703805     0.77600
C356        C  0.00841402  0.38814335  0.34114137     0.80000
Cd357      Cd  0.00207859  0.34924008  0.28445756     1.37500
O358        O  0.94529068  0.36962292  0.24199577    -0.55000
O359        O  0.49827568  0.40527660  0.31581874    -0.53800
C360        C  0.49628181  0.27042878  0.28351931     0.79900
O361        O  0.01725008  0.35404658  0.33959551    -0.56200
O362        O  0.90524371  0.35910317  0.28420270    -0.54700
O363        O  0.59895726  0.34633810  0.27778260    -0.54700
O364        O  0.00656364  0.28798828  0.26033045    -0.53800
C365        C  0.01083685  0.48031085  0.47250220     0.05100
C366        C  0.99465103  0.01890290  0.47357850     0.05000
C367        C  0.99650353  0.03777804  0.50123569    -0.15500
C368        C  0.99786291  0.01847615  0.52868907     0.05100
C369        C  0.00932970  0.47987347  0.52763488     0.05000
C370        C  0.01047633  0.46101450  0.49997536    -0.15500
H371        H  0.01108383  0.43120160  0.49982742     0.07100
H372        H  0.99685275  0.06758398  0.50139563     0.07100
O373        O  0.81020031  0.12245799  0.74323966    -0.55000
C374        C  0.65383191  0.12013166  0.75663390     0.77600
O375        O  0.74178620  0.03952971  0.80804043    -0.56200
C376        C  0.85309991  0.12101038  0.75803560     0.77600
C377        C  0.75001204  0.14052213  0.84114043     0.80000
Cd378      Cd  0.75294556  0.10065513  0.78487107     1.37500
O379        O  0.69728153  0.13389177  0.74789758    -0.55000
O380        O  0.73838878  0.15577835  0.81629974    -0.53800
C381        C  0.75191901  0.02140901  0.78429884     0.79900
O382        O  0.76338547  0.10710600  0.84016580    -0.56200
O383        O  0.65608644  0.09731360  0.77818301    -0.54700
O384        O  0.84998391  0.11025956  0.78521934    -0.54700
O385        O  0.76286123  0.03971383  0.76076708    -0.53800
O386        O  0.69740811  0.36732322  0.74747027    -0.55000
C387        C  0.85354641  0.38080793  0.75684753     0.77600
O388        O  0.74499090  0.46231853  0.80719144    -0.56200
C389        C  0.65374432  0.38016635  0.75673063     0.77600
C390        C  0.75280450  0.36212570  0.84075740     0.80000
Cd391      Cd  0.75339298  0.40109584  0.78397945     1.37500
O392        O  0.81034523  0.37818573  0.74246850    -0.55000
O393        O  0.74576698  0.34565256  0.81588300    -0.53800
C394        C  0.75228147  0.48039444  0.78310431     0.79900
O395        O  0.76037408  0.39638176  0.83960408    -0.56200
O396        O  0.85082145  0.39313071  0.78359480    -0.54700
O397        O  0.65586426  0.40275553  0.77844858    -0.54700
O398        O  0.76019545  0.46203375  0.75919374    -0.53800
O399        O  0.55985220  0.11660952  0.75153285    -0.55000
C400        C  0.90392433  0.13113225  0.74426248     0.77600
O401        O  0.00604133  0.21151030  0.69291632    -0.56200
C402        C  0.60326052  0.13020665  0.74258378     0.77600
C403        C  0.00408312  0.11015250  0.66040213     0.80000
Cd404      Cd  0.00400880  0.15027966  0.71669311     1.37500
O405        O  0.94692038  0.12963624  0.75896124    -0.55000
O406        O  0.51519617  0.09507684  0.68321439    -0.53800
C407        C  0.50404065  0.22946973  0.71574547     0.79900
O408        O  0.00030083  0.14473941  0.66101674    -0.56200
O409        O  0.90694195  0.14165876  0.71702648    -0.54700
O410        O  0.60084842  0.15298485  0.72100647    -0.54700
O411        O  0.00106774  0.21130334  0.74160603    -0.53800
O412        O  0.94741109  0.37243582  0.75765638    -0.55000
C413        C  0.60319881  0.36947183  0.74291071     0.77600
O414        O  0.51562299  0.28785553  0.69225680    -0.56200
C415        C  0.90426628  0.37003434  0.74321016     0.77600
C416        C  0.50420740  0.38804333  0.65832462     0.80000
Cd417      Cd  0.50380454  0.34911686  0.71517122     1.37500
O418        O  0.55956483  0.38261336  0.75195551    -0.55000
O419        O  0.00925195  0.40506508  0.68437418    -0.53800
C420        C  0.00350394  0.26992290  0.71724556     0.77900
O421        O  0.00329128  0.35367743  0.66041439    -0.56200
O422        O  0.60109974  0.34672472  0.72129287    -0.54700
O423        O  0.90704482  0.35782630  0.71643380    -0.54700
O424        O  0.49254826  0.28806970  0.73920134    -0.53800
C425        C  0.50456356  0.40739740  0.62999110    -0.15700
C426        C  0.50505732  0.42368069  0.60620252     0.08300
C427        C  0.50589957  0.44289645  0.57841828     0.10200
C428        C  0.50685175  0.45967054  0.55486672    -0.16600
C429        C  0.00354620  0.09026852  0.63230728    -0.15700
C430        C  0.00259664  0.07392323  0.60854304     0.08300
C431        C  0.00110702  0.05501431  0.58061501     0.10200
C432        C  0.99966913  0.03869898  0.55684453    -0.16600
C433        C  0.01187675  0.45999206  0.44441331    -0.15700
C434        C  0.01228751  0.44329776  0.42082684     0.08300
C435        C  0.01198271  0.42394945  0.39311894     0.10200
C436        C  0.01087183  0.40752820  0.36941022    -0.16600
C437        C  0.49106909  0.03909356  0.44425260    -0.15700
C438        C  0.49000531  0.05597656  0.42076657     0.08300
C439        C  0.48938077  0.07551394  0.39315003     0.10200
C440        C  0.48943355  0.09208248  0.36950286    -0.16600
C441        C  0.73911570  0.21182352  0.05574694    -0.15700
C442        C  0.73863113  0.19513311  0.07936150     0.08300
C443        C  0.73876317  0.17586660  0.10715302     0.10200
C444        C  0.73935943  0.15945442  0.13089940    -0.16600
C445        C  0.74411611  0.29151018  0.05565054    -0.15700
C446        C  0.74548361  0.30825916  0.07917916     0.08300
C447        C  0.74731159  0.32749621  0.10688843     0.10200
C448        C  0.74883189  0.34369965  0.13067232    -0.16600
C449        C  0.74263356  0.21190354  0.94455445    -0.15700
C450        C  0.74384753  0.19546822  0.92086146     0.08300
C451        C  0.74592866  0.17651895  0.89300192     0.10200
C452        C  0.74789837  0.16022086  0.86926071    -0.16600
C453        C  0.74687485  0.29146132  0.94457371    -0.15700
C454        C  0.74879567  0.30790664  0.92089164     0.08300
C455        C  0.75073390  0.32675918  0.89296978     0.10200
C456        C  0.75197028  0.34282833  0.86909925    -0.16600
C457        C  0.75044254  0.73129107  0.97197968     0.05100
C458        C  0.74888987  0.76998079  0.97203716     0.05000
C459        C  0.74855576  0.78899579  0.99962442    -0.15500
C460        C  0.74972638  0.76990795  0.02717279     0.05100
C461        C  0.75118541  0.73120032  0.02712795     0.05000
C462        C  0.75152951  0.71218591  0.99952507    -0.15500
H463        H  0.75266264  0.68237080  0.99948118     0.07100
H464        H  0.74739736  0.81881388  0.99965290     0.07100
O465        O  0.69775405  0.63488740  0.25097837    -0.55000
C466        C  0.85314646  0.62118178  0.24310281     0.77600
O467        O  0.74277743  0.53861916  0.19251862    -0.56200
C468        C  0.65447593  0.62021216  0.24301509     0.77600
C469        C  0.75356334  0.63828360  0.15825323     0.80000
Cd470      Cd  0.75399596  0.59990189  0.21535915     1.37500
O471        O  0.81030706  0.62056933  0.25799166    -0.55000
O472        O  0.73813438  0.65354245  0.18241247    -0.53800
C473        C  0.75373637  0.52062215  0.21619984     0.79900
O474        O  0.76911649  0.60538319  0.16021008    -0.56200
O475        O  0.85035385  0.61214371  0.21549402    -0.54700
O476        O  0.65697555  0.59616739  0.22238858    -0.54700
O477        O  0.76500427  0.53905583  0.23960871    -0.53800
O478        O  0.80029943  0.86497484  0.25028732    -0.55000
C479        C  0.64463480  0.88094448  0.24259100     0.77600
O480        O  0.75509692  0.96264569  0.19218366    -0.56200
C481        C  0.84345820  0.88058179  0.24341268     0.77600
C482        C  0.74654378  0.86288043  0.15826368     0.80000
Cd483      Cd  0.74451864  0.90137011  0.21530137     1.37500
O484        O  0.68705390  0.88222669  0.25783753    -0.55000
O485        O  0.75844820  0.84707405  0.18282555    -0.53800
C486        C  0.74431153  0.98065705  0.21589387     0.79900
O487        O  0.73366487  0.89636626  0.15979220    -0.56200
O488        O  0.64808570  0.88911958  0.21482191    -0.54700
O489        O  0.84104191  0.90577354  0.22374726    -0.54700
O490        O  0.73370768  0.96222829  0.23941102    -0.53800
O491        O  0.94646167  0.63196578  0.24228029    -0.55000
C492        C  0.60386730  0.63061690  0.25694531     0.77600
O493        O  0.49590256  0.71233620  0.30757760    -0.56200
C494        C  0.90363591  0.63160769  0.25716389     0.77600
C495        C  0.50896076  0.61286092  0.34112112     0.80000
Cd496      Cd  0.50406520  0.65130646  0.28414841     1.37500
O497        O  0.56059079  0.61605252  0.24886872    -0.55000
O498        O  0.00593883  0.59551877  0.31682756    -0.53800
C499        C  0.00002190  0.73031504  0.28443022     0.79900
O500        O  0.50932459  0.64752625  0.33993207    -0.56200
O501        O  0.60130798  0.65464494  0.27757991    -0.54700
O502        O  0.90661383  0.64048106  0.28479965    -0.54700
O503        O  0.50650984  0.71211085  0.25915959    -0.53800
O504        O  0.55165750  0.86882794  0.24111850    -0.55000
C505        C  0.89387003  0.87002517  0.25748417     0.77600
O506        O  0.99245638  0.78844661  0.30876189    -0.56200
C507        C  0.59399356  0.87044746  0.25642063     0.77600
C508        C  0.99081029  0.88784555  0.34209115     0.80000
Cd509      Cd  0.99360966  0.84961901  0.28504116     1.37500
O510        O  0.93692540  0.88558689  0.25041673    -0.55000
O511        O  0.48695369  0.90467716  0.31595959    -0.53800
C512        C  0.49826511  0.77059709  0.28314955     0.79900
O513        O  0.99440441  0.85327053  0.34088651    -0.56200
O514        O  0.89653945  0.84494892  0.27723475    -0.54700
O515        O  0.59049781  0.86251611  0.28423543    -0.54700
O516        O  0.00146297  0.78894170  0.26023744    -0.53800
C517        C  0.99425788  0.98019178  0.47337792     0.05100
C518        C  0.00997010  0.51901878  0.47269044     0.05000
C519        C  0.00884140  0.53785601  0.50034980    -0.15500
C520        C  0.00853608  0.51856749  0.52780578     0.05100
C521        C  0.99735852  0.97978193  0.52844572     0.05000
C522        C  0.99563539  0.96093270  0.50081797    -0.15500
H523        H  0.99528317  0.93109388  0.50067339     0.07100
H524        H  0.00820467  0.56767725  0.50051249     0.07100
O525        O  0.80806775  0.62081360  0.74151815    -0.55000
C526        C  0.65182214  0.62032165  0.75670599     0.77600
O527        O  0.74321882  0.53867105  0.80709454    -0.56200
C528        C  0.85111752  0.61946716  0.75617684     0.77600
C529        C  0.75174355  0.63924927  0.84045301     0.80000
Cd530      Cd  0.75152853  0.59985342  0.78384134     1.37500
O531        O  0.69502057  0.63494198  0.74856434    -0.55000
O532        O  0.74151559  0.65518032  0.81570029    -0.53800
C533        C  0.75172360  0.52064030  0.78309406     0.79900
O534        O  0.76181623  0.60529704  0.83927581    -0.56200
O535        O  0.65448593  0.59622658  0.77727999    -0.54700
O536        O  0.84831668  0.60897325  0.78342747    -0.54700
O537        O  0.75985687  0.53903391  0.75923068    -0.53800
O538        O  0.69256445  0.86652655  0.74892315    -0.55000
C539        C  0.84848245  0.88072825  0.75741190     0.77600
O540        O  0.73974145  0.96305628  0.80772946    -0.56200
C541        C  0.64938774  0.88176145  0.75626016     0.77600
C542        C  0.74672317  0.86286846  0.84099430     0.80000
Cd543      Cd  0.74872984  0.90192485  0.78430441     1.37500
O544        O  0.80596073  0.88131916  0.74222331    -0.55000
O545        O  0.73751141  0.84682760  0.81616448    -0.53800
C546        C  0.75089559  0.98117085  0.78413703     0.79900
O547        O  0.75662164  0.89684885  0.83987987    -0.56200
O548        O  0.84524503  0.89016652  0.78491969    -0.54700
O549        O  0.65192794  0.90659828  0.77622484    -0.54700
O550        O  0.76100281  0.96286295  0.76047027    -0.53800
O551        O  0.55799678  0.61602534  0.75096908    -0.55000
C552        C  0.90178978  0.62971657  0.74235938     0.77600
O553        O  0.00848408  0.71171180  0.69238884    -0.56200
C554        C  0.60117302  0.63072742  0.74290590     0.77600
C555        C  0.00425589  0.61091794  0.65903328     0.80000
Cd556      Cd  0.00158979  0.65036443  0.71549886     1.37500
O557        O  0.94466763  0.62863735  0.75718908    -0.55000
O558        O  0.51125335  0.59488890  0.68398015    -0.53800
C559        C  0.50026984  0.72988469  0.71591951     0.79900
O560        O  0.99433840  0.64490535  0.65995328    -0.56200
O561        O  0.90478600  0.64021371  0.71510810    -0.54700
O562        O  0.59851667  0.65477618  0.72230045    -0.54700
O563        O  0.99137169  0.71094790  0.74019787    -0.53800
O564        O  0.94165978  0.86923832  0.75884511    -0.55000
C565        C  0.59885477  0.87096500  0.74246483     0.77600
O566        O  0.50664233  0.78832110  0.69191923    -0.56200
C567        C  0.89901918  0.86969999  0.74375835     0.77600
C568        C  0.49936860  0.88784372  0.65861587     0.80000
Cd569      Cd  0.49918547  0.84940965  0.71553877     1.37500
O570        O  0.55557075  0.88584034  0.75009583    -0.55000
O571        O  0.00830636  0.90378914  0.68419102    -0.53800
C572        C  0.99876710  0.76976660  0.71664926     0.77900
O573        O  0.98948525  0.85336827  0.66093138    -0.56200
O574        O  0.59634308  0.84615285  0.72247992    -0.54700
O575        O  0.90211058  0.86022461  0.71626151    -0.54700
O576        O  0.49238096  0.78838341  0.74002507    -0.53800
C577        C  0.49937334  0.90702308  0.63024703    -0.15700
C578        C  0.49921280  0.92324646  0.60645507     0.08300
C579        C  0.49873669  0.94243440  0.57870216     0.10200
C580        C  0.49796378  0.95914268  0.55514455    -0.16600
C581        C  0.00537879  0.59123443  0.63089518    -0.15700
C582        C  0.00611372  0.57474431  0.60722642     0.08300
C583        C  0.00685773  0.55547108  0.57950397     0.10200
C584        C  0.00754215  0.53886938  0.55588789    -0.16600
C585        C  0.99251097  0.95981360  0.44532848    -0.15700
C586        C  0.99129922  0.94293745  0.42183857     0.08300
C587        C  0.99035172  0.92341813  0.39421663     0.10200
C588        C  0.99014441  0.90700915  0.37049421    -0.16600
C589        C  0.51168914  0.54081683  0.44439189    -0.15700
C590        C  0.51194337  0.55783236  0.42094684     0.08300
C591        C  0.51162294  0.57732453  0.39328265     0.10200
C592        C  0.51076520  0.59367643  0.36952320    -0.16600
C593        C  0.75222164  0.71059802  0.05509476    -0.15700
C594        C  0.75285186  0.69362655  0.07855707     0.08300
C595        C  0.75330167  0.67402099  0.10616247     0.10200
C596        C  0.75348597  0.65753586  0.12986346    -0.16600
C597        C  0.74935877  0.79045056  0.05517462    -0.15700
C598        C  0.74894514  0.80742697  0.07863407     0.08300
C599        C  0.74826781  0.82706362  0.10622215     0.10200
C600        C  0.74753114  0.84358520  0.12990078    -0.16600
C601        C  0.75098733  0.71085603  0.94392587    -0.15700
C602        C  0.75140579  0.69429210  0.92026940     0.08300
C603        C  0.75174764  0.67517464  0.89243914     0.10200
C604        C  0.75184352  0.65883300  0.86867662    -0.16600
C605        C  0.74772686  0.79054272  0.94406709    -0.15700
C606        C  0.74693740  0.80734231  0.92053630     0.08300
C607        C  0.74634550  0.82677536  0.89287131     0.10200
C608        C  0.74624154  0.84330130  0.86920686    -0.16600
loop_ 
_geom_bond_atom_site_label_1 
_geom_bond_atom_site_label_2 
_geom_bond_distance 
_geom_bond_site_symmetry_2 
_ccdc_geom_bond_type 
C1            C2   1.409       .  A
C1            C6   1.401       .  A
C1          C145   1.444       .  S
C2            C3   1.401       .  A
C2          C149   1.445       .  S
C3            C4   1.401   1_556  A
C3            H8   1.085       .  S
C4            C5   1.409       .  A
C4          C141   1.443       .  S
C5            C6   1.401   1_554  A
C5          C137   1.446       .  S
C6            H7   1.086       .  S
O9           C12   1.264       .  A
O9          Cd14   2.471       .  S
C10          O19   1.264       .  A
C10          O15   1.264       .  A
C10          C38   1.466       .  S
O11          C17   1.264       .  A
O11         Cd14   2.465       .  S
C12          O20   1.264       .  A
C12          C36   1.466       .  S
C13         C140   1.437       .  S
C13          O18   1.263       .  A
C13          O16   1.263       .  A
Cd14         O21   2.475       .  S
Cd14         O20   2.472       .  S
Cd14         O19   2.473       .  S
Cd14         O15   2.474       .  S
Cd14         O18   2.473       .  S
Cd14         O16   2.474       .  S
C17          O21   1.264       .  A
C17         C182   1.465   1_545  S
O22          C25   1.264       .  A
O22         Cd27   2.470       .  S
C23          O32   1.264       .  A
C23          O28   1.264       .  A
C23          C51   1.465       .  S
O24          C30   1.264       .  A
O24         Cd27   2.461       .  S
C25          O33   1.264       .  A
C25          C49   1.465       .  S
C26         C144   1.434       .  S
C26          O31   1.263       .  A
C26          O29   1.263       .  A
Cd27         O34   2.476       .  S
Cd27         O33   2.468       .  S
Cd27         O32   2.470       .  S
Cd27         O28   2.469       .  S
Cd27         O31   2.467       .  S
Cd27         O29   2.465       .  S
C30          O34   1.265       .  A
C30         C169   1.465       .  S
O35          C38   1.264       .  A
O35        Cd344   2.468       .  S
C36          O45   1.264       .  A
C36          O41   1.264       .  A
O37         C347   1.264       .  A
O37         Cd40   2.467       .  S
C38          O46   1.264       .  A
C39         C136   1.435       .  S
C39          O44   1.263   1_655  A
C39         O346   1.263       .  A
Cd40         O47   2.476   1_655  S
Cd40         O45   2.475   1_655  S
Cd40         O41   2.471   1_655  S
Cd40         O44   2.470   1_655  S
Cd40        O339   2.468       .  S
Cd40        O350   2.475       .  S
Cd40        O346   2.470       .  S
O42         C343   1.263       .  A
O42        Cd344   2.468       .  S
C43         O341   1.264       .  A
C43         O351   1.264       .  A
C43         C360   1.466       .  S
O46        Cd344   2.474       .  S
O47         C347   1.264   1_455  A
O48          C51   1.264       .  A
O48        Cd357   2.471       .  S
C49          O58   1.264       .  A
C49          O54   1.264       .  A
O50         C360   1.264       .  A
O50         Cd53   2.463       .  S
C51          O59   1.264       .  A
C52         C132   1.434       .  S
C52          O57   1.263       .  A
C52         O359   1.263       .  A
Cd53         O60   2.476       .  S
Cd53         O58   2.469       .  S
Cd53         O54   2.469       .  S
Cd53         O57   2.468       .  S
Cd53        O352   2.470       .  S
Cd53        O363   2.471       .  S
Cd53        O359   2.466       .  S
O55         C356   1.263   1_655  A
O55        Cd357   2.466   1_655  S
C56         O354   1.264       .  A
C56         O364   1.265   1_655  A
C56         C347   1.466       .  S
O59        Cd357   2.469       .  S
O60         C360   1.265       .  A
C61          C66   1.401       .  A
C61         C214   1.410       .  A
C61         C129   1.444       .  S
C62          C63   1.401       .  A
C62         C213   1.409   1_545  A
C62         C437   1.444       .  S
C63          C64   1.400       .  A
C63          H68   1.086       .  S
C64         C217   1.409   1_545  A
C64         C128   1.444       .  S
C65          C66   1.400       .  A
C65         C216   1.409       .  A
C65         C428   1.444       .  S
C66          H67   1.085       .  S
O69          C72   1.264       .  A
O69         Cd74   2.466       .  S
C70          O79   1.264       .  A
C70          O75   1.265       .  A
C70          C98   1.465       .  S
O71          C77   1.264       .  A
O71         Cd74   2.466       .  S
C72          O80   1.264       .  A
C72          C96   1.465       .  S
C73         C148   1.435       .  S
C73          O78   1.263       .  A
C73          O76   1.263       .  A
Cd74         O81   2.474       .  S
Cd74         O80   2.473       .  S
Cd74         O79   2.464       .  S
Cd74         O75   2.470       .  S
Cd74         O78   2.468       .  S
Cd74         O76   2.467       .  S
C77          O81   1.264       .  A
C77         C242   1.465   1_545  S
O82          C85   1.264       .  A
O82         Cd87   2.471       .  S
C83          O92   1.264       .  A
C83          O88   1.264       .  A
C83         C111   1.466       .  S
O84          C90   1.263       .  A
O84         Cd87   2.465       .  S
C85          O93   1.264       .  A
C85         C109   1.466       .  S
C86         C152   1.435       .  S
C86          O91   1.263       .  A
C86          O89   1.263       .  A
Cd87         O94   2.479       .  S
Cd87         O93   2.472       .  S
Cd87         O92   2.474       .  S
Cd87         O88   2.470       .  S
Cd87         O91   2.469       .  S
Cd87         O89   2.469       .  S
C90          O94   1.265       .  A
C90         C229   1.466       .  S
O95          C98   1.264       .  A
O95        Cd404   2.467       .  S
C96         O105   1.264       .  A
C96         O101   1.265       .  A
O97         C407   1.264       .  A
O97        Cd100   2.466       .  S
C98         O106   1.264       .  A
C99         C125   1.435       .  S
C99         O104   1.263       .  A
C99         O406   1.263       .  A
Cd100       O107   2.475       .  S
Cd100       O105   2.465       .  S
Cd100       O101   2.472       .  S
Cd100       O104   2.466       .  S
Cd100       O399   2.466       .  S
Cd100       O410   2.469       .  S
Cd100       O406   2.470       .  S
O102        C403   1.263       .  A
O102       Cd404   2.472       .  S
C103        O401   1.264       .  A
C103        O411   1.264       .  A
C103        C420   1.467       .  S
O106       Cd404   2.472       .  S
O107        C407   1.264       .  A
O108        C111   1.264       .  A
O108       Cd417   2.473       .  S
C109        O118   1.264       .  A
C109        O114   1.264       .  A
O110        C420   1.263       .  A
O110       Cd113   2.465       .  S
C111        O119   1.264       .  A
C112        C121   1.435       .  S
C112        O421   1.263       .  A
C112        O419   1.263       .  A
Cd113       O120   2.484       .  S
Cd113       O118   2.473       .  S
Cd113       O114   2.470       .  S
Cd113       O412   2.473   1_455  S
Cd113       O423   2.475   1_455  S
Cd113       O421   2.468       .  S
Cd113       O419   2.471       .  S
O115        C416   1.263       .  A
O115       Cd417   2.469       .  S
C116        O414   1.264       .  A
C116        O424   1.264       .  A
C116        C407   1.466       .  S
O117        C416   1.263       .  A
O117       Cd417   2.469       .  S
O119       Cd417   2.471       .  S
O120        C420   1.265       .  A
C121        C122   1.206       .  T
C122        C123   1.412       .  S
C123        C124   1.206       .  T
C124        C369   1.444       .  S
C125        C126   1.205       .  T
C126        C127   1.411       .  S
C127        C128   1.205       .  T
C129        C130   1.205       .  T
C130        C131   1.411       .  S
C131        C132   1.205       .  T
C133        C366   1.444       .  S
C133        C134   1.205       .  T
C134        C135   1.411       .  S
C135        C136   1.205       .  T
C137        C138   1.206       .  T
C138        C139   1.413       .  S
C139        C140   1.206       .  T
C141        C142   1.205       .  T
C142        C143   1.410       .  S
C143        C144   1.205       .  T
C145        C146   1.205       .  T
C146        C147   1.411       .  S
C147        C148   1.205       .  T
C149        C150   1.206       .  T
C150        C151   1.412       .  S
C151        C152   1.206       .  T
C153        C154   1.409       .  A
C153        C158   1.400   1_556  A
C153        C297   1.443       .  S
C154        C155   1.400   1_556  A
C154        C301   1.443       .  S
C155        C156   1.400       .  A
C155        H160   1.086       .  S
C156        C157   1.410       .  A
C156        C293   1.443       .  S
C157        C158   1.400       .  A
C157        C289   1.444       .  S
C158        H159   1.086       .  S
O161        C164   1.265       .  A
O161       Cd166   2.472       .  S
C162        O171   1.264       .  A
C162        O167   1.265       .  A
C162        C190   1.466       .  S
O163        C169   1.264       .  A
O163       Cd166   2.464       .  S
C164        O172   1.264       .  A
C164        C188   1.466       .  S
C165        C292   1.435       .  S
C165        O170   1.263       .  A
C165        O168   1.263       .  A
Cd166       O173   2.476       .  S
Cd166       O172   2.468       .  S
Cd166       O171   2.469       .  S
Cd166       O167   2.475       .  S
Cd166       O170   2.469       .  S
Cd166       O168   2.467       .  S
C169        O173   1.264       .  A
O174        C177   1.265       .  A
O174       Cd179   2.472       .  S
C175        O184   1.264       .  A
C175        O180   1.264       .  A
C175        C203   1.466       .  S
O176        C182   1.264       .  A
O176       Cd179   2.465       .  S
C177        O185   1.264       .  A
C177        C201   1.466       .  S
C178        C296   1.434       .  S
C178        O183   1.264       .  A
C178        O181   1.263       .  A
Cd179       O186   2.474       .  S
Cd179       O185   2.467       .  S
Cd179       O184   2.469       .  S
Cd179       O180   2.474       .  S
Cd179       O183   2.468       .  S
Cd179       O181   2.464       .  S
C182        O186   1.264       .  A
O187        C190   1.264       .  A
O187       Cd496   2.472       .  S
C188        O197   1.264       .  A
C188        O193   1.264       .  A
O189        C499   1.264   1_655  A
O189       Cd192   2.461   1_655  S
C190        O198   1.263       .  A
C191        C288   1.435       .  S
C191        O196   1.263       .  A
C191        O498   1.264       .  A
Cd192       O491   2.472   1_455  S
Cd192       O199   2.473       .  S
Cd192       O502   2.475   1_455  S
Cd192       O197   2.474       .  S
Cd192       O193   2.469       .  S
Cd192       O196   2.469       .  S
Cd192       O498   2.467       .  S
O194        C495   1.264       .  A
O194       Cd496   2.468       .  S
C195        O493   1.264       .  A
C195        O503   1.264       .  A
C195        C512   1.464       .  S
O198       Cd496   2.474       .  S
O199        C499   1.264       .  A
O200        C203   1.264       .  A
O200       Cd509   2.468   1_455  S
C201        O210   1.264       .  A
C201        O206   1.264       .  A
O202        C512   1.264       .  A
O202       Cd205   2.459       .  S
C203        O211   1.264       .  A
C204        C284   1.434       .  S
C204        O209   1.263       .  A
C204        O511   1.263       .  A
Cd205       O504   2.471       .  S
Cd205       O212   2.474       .  S
Cd205       O515   2.471       .  S
Cd205       O210   2.474       .  S
Cd205       O206   2.469       .  S
Cd205       O209   2.465       .  S
Cd205       O511   2.464       .  S
O207        C508   1.263       .  A
O207       Cd509   2.465       .  S
C208        O506   1.264       .  A
C208        O516   1.264   1_655  A
C208        C499   1.464   1_655  S
O211       Cd509   2.473   1_455  S
O212        C512   1.265       .  A
C213        C218   1.400       .  A
C213        C281   1.443       .  S
C214        C215   1.401       .  A
C214        C589   1.445       .  S
C215        C216   1.401       .  A
C215        H220   1.086       .  S
C216        C280   1.443       .  S
C217        C218   1.400       .  A
C217        C580   1.443       .  S
C218        H219   1.086       .  S
O221        C224   1.264       .  A
O221       Cd226   2.470       .  S
C222        O231   1.264       .  A
C222        O227   1.264       .  A
C222        C250   1.465       .  S
O223        C229   1.264       .  A
O223       Cd226   2.463       .  S
C224        O232   1.264       .  A
C224        C248   1.464       .  S
C225        C300   1.434       .  S
C225        O230   1.263       .  A
C225        O228   1.263       .  A
Cd226       O233   2.473       .  S
Cd226       O232   2.464       .  S
Cd226       O231   2.468       .  S
Cd226       O227   2.467       .  S
Cd226       O230   2.466       .  S
Cd226       O228   2.469       .  S
C229        O233   1.264       .  A
O234        C237   1.264       .  A
O234       Cd239   2.471       .  S
C235        O244   1.264       .  A
C235        O240   1.264       .  A
C235        C263   1.466       .  S
O236        C242   1.264       .  A
O236       Cd239   2.464       .  S
C237        O245   1.264       .  A
C237        C261   1.466       .  S
C238        C304   1.434       .  S
C238        O243   1.263       .  A
C238        O241   1.263       .  A
Cd239       O246   2.474       .  S
Cd239       O245   2.472       .  S
Cd239       O244   2.471       .  S
Cd239       O240   2.469       .  S
Cd239       O243   2.465       .  S
Cd239       O241   2.467       .  S
C242        O246   1.265       .  A
O247        C250   1.264       .  A
O247       Cd556   2.468       .  S
C248        O257   1.264       .  A
C248        O253   1.264       .  A
O249        C559   1.264       .  A
O249       Cd252   2.464       .  S
C250        O258   1.264       .  A
C251        C277   1.434       .  S
C251        O256   1.263       .  A
C251        O558   1.263       .  A
Cd252       O551   2.467       .  S
Cd252       O259   2.474       .  S
Cd252       O562   2.468       .  S
Cd252       O257   2.470       .  S
Cd252       O253   2.464       .  S
Cd252       O256   2.466       .  S
Cd252       O558   2.468       .  S
O254        C555   1.263       .  A
O254       Cd556   2.466       .  S
C255        O553   1.264   1_655  A
C255        O563   1.264       .  A
C255        C572   1.465       .  S
O258       Cd556   2.468       .  S
O259        C559   1.265       .  A
O260        C263   1.264       .  A
O260       Cd569   2.472       .  S
C261        O270   1.264       .  A
C261        O266   1.264       .  A
O262        C572   1.264   1_455  A
O262       Cd265   2.460   1_455  S
C263        O271   1.264       .  A
C264        C273   1.433       .  S
C264        O573   1.263       .  A
C264        O571   1.263   1_655  A
Cd265       O564   2.473       .  S
Cd265       O272   2.477       .  S
Cd265       O575   2.468       .  S
Cd265       O270   2.470   1_655  S
Cd265       O266   2.471   1_655  S
Cd265       O573   2.463       .  S
Cd265       O571   2.462   1_655  S
O267        C568   1.263       .  A
O267       Cd569   2.464       .  S
C268        O566   1.264       .  A
C268        O576   1.265       .  A
C268        C559   1.466       .  S
O269        C568   1.263       .  A
O269       Cd569   2.465       .  S
O271       Cd569   2.470       .  S
O272        C572   1.265       .  A
C273        C274   1.204       .  T
C274        C275   1.409       .  S
C275        C276   1.204       .  T
C276        C521   1.442       .  S
C277        C278   1.205       .  T
C278        C279   1.411       .  S
C279        C280   1.205       .  T
C281        C282   1.205       .  T
C282        C283   1.410       .  S
C283        C284   1.205       .  T
C285        C518   1.444       .  S
C285        C286   1.206       .  T
C286        C287   1.412       .  S
C287        C288   1.206       .  T
C289        C290   1.205       .  T
C290        C291   1.412       .  S
C291        C292   1.205       .  T
C293        C294   1.205       .  T
C294        C295   1.411       .  S
C295        C296   1.205       .  T
C297        C298   1.205       .  T
C298        C299   1.411       .  S
C299        C300   1.205       .  T
C301        C302   1.205       .  T
C302        C303   1.411       .  S
C303        C304   1.205       .  T
C305        C306   1.409       .  A
C305        C310   1.401   1_556  A
C305        C449   1.443       .  S
C306        C307   1.400   1_556  A
C306        C453   1.444       .  S
C307        C308   1.400       .  A
C307        H312   1.086       .  S
C308        C309   1.410       .  A
C308        C445   1.442       .  S
C309        C310   1.400       .  A
C309        C441   1.445       .  S
C310        H311   1.086       .  S
O313        C316   1.264       .  A
O313       Cd318   2.474       .  S
C314        O323   1.264       .  A
C314        O319   1.264       .  A
C314        C342   1.466       .  S
O315        C321   1.264       .  A
O315       Cd318   2.467       .  S
C316        O324   1.264       .  A
C316        C340   1.467       .  S
C317        C444   1.436       .  S
C317        O322   1.263       .  A
C317        O320   1.263       .  A
Cd318       O325   2.475       .  S
Cd318       O324   2.471       .  S
Cd318       O323   2.473       .  S
Cd318       O319   2.476       .  S
Cd318       O322   2.471       .  S
Cd318       O320   2.473       .  S
C321        O325   1.264       .  A
C321        C486   1.466   1_545  S
O326        C329   1.264       .  A
O326       Cd331   2.470       .  S
C327        O336   1.264       .  A
C327        O332   1.264       .  A
C327        C355   1.466       .  S
O328        C334   1.263       .  A
O328       Cd331   2.461       .  S
C329        O337   1.264       .  A
C329        C353   1.466       .  S
C330        C448   1.433       .  S
C330        O335   1.263       .  A
C330        O333   1.263       .  A
Cd331       O338   2.477       .  S
Cd331       O337   2.471       .  S
Cd331       O336   2.470       .  S
Cd331       O332   2.472       .  S
Cd331       O335   2.464       .  S
Cd331       O333   2.463       .  S
C334        O338   1.265       .  A
C334        C473   1.465       .  S
O339        C342   1.264       .  A
C340        O349   1.264       .  A
C340        O345   1.264       .  A
O341       Cd344   2.465       .  S
C342        O350   1.264       .  A
C343        C440   1.435       .  S
C343        O348   1.263       .  A
Cd344       O351   2.477       .  S
Cd344       O349   2.476       .  S
Cd344       O345   2.471       .  S
Cd344       O348   2.468       .  S
O352        C355   1.264       .  A
C353        O362   1.264       .  A
C353        O358   1.265       .  A
O354       Cd357   2.464   1_655  S
C355        O363   1.264       .  A
C356        C436   1.434       .  S
C356        O361   1.263       .  A
Cd357       O364   2.474       .  S
Cd357       O362   2.468   1_455  S
Cd357       O358   2.472   1_455  S
Cd357       O361   2.469       .  S
C365        C518   1.410       .  A
C365        C370   1.401       .  A
C365        C433   1.444       .  S
C366        C517   1.410   1_545  A
C366        C367   1.401       .  A
C367        C368   1.401       .  A
C367        H372   1.085       .  S
C368        C521   1.409   1_545  A
C368        C432   1.445       .  S
C369        C520   1.409       .  A
C369        C370   1.401       .  A
C370        H371   1.086       .  S
O373        C376   1.264       .  A
O373       Cd378   2.467       .  S
C374        O383   1.264       .  A
C374        O379   1.265       .  A
C374        C402   1.464       .  S
O375        C381   1.264       .  A
O375       Cd378   2.465       .  S
C376        O384   1.264       .  A
C376        C400   1.465       .  S
C377        C452   1.434       .  S
C377        O382   1.263       .  A
C377        O380   1.263       .  A
Cd378       O385   2.473       .  S
Cd378       O384   2.472       .  S
Cd378       O383   2.463       .  S
Cd378       O379   2.469       .  S
Cd378       O382   2.465       .  S
Cd378       O380   2.467       .  S
C381        O385   1.264       .  A
C381        C546   1.465   1_545  S
O386        C389   1.264       .  A
O386       Cd391   2.470       .  S
C387        O396   1.264       .  A
C387        O392   1.264       .  A
C387        C415   1.467       .  S
O388        C394   1.263       .  A
O388       Cd391   2.462       .  S
C389        O397   1.264       .  A
C389        C413   1.465       .  S
C390        C456   1.434       .  S
C390        O395   1.263       .  A
C390        O393   1.263       .  A
Cd391       O398   2.480       .  S
Cd391       O397   2.472       .  S
Cd391       O396   2.474       .  S
Cd391       O392   2.472       .  S
Cd391       O395   2.466       .  S
Cd391       O393   2.469       .  S
C394        O398   1.265       .  A
C394        C533   1.465       .  S
O399        C402   1.264       .  A
C400        O409   1.264       .  A
C400        O405   1.264       .  A
O401       Cd404   2.465       .  S
C402        O410   1.264       .  A
C403        C429   1.436       .  S
C403        O408   1.263       .  A
Cd404       O411   2.480       .  S
Cd404       O409   2.467   1_455  S
Cd404       O405   2.473   1_455  S
Cd404       O408   2.466       .  S
O412        C415   1.264       .  A
C413        O422   1.264       .  A
C413        O418   1.264       .  A
O414       Cd417   2.467       .  S
C415        O423   1.264       .  A
C416        C425   1.435       .  S
Cd417       O424   2.479       .  S
Cd417       O422   2.469       .  S
Cd417       O418   2.469       .  S
C425        C426   1.206       .  T
C426        C427   1.412       .  S
C427        C428   1.206       .  T
C429        C430   1.206       .  T
C430        C431   1.412       .  S
C431        C432   1.206   1_455  T
C433        C434   1.205       .  T
C434        C435   1.411       .  S
C435        C436   1.205       .  T
C437        C438   1.205       .  T
C438        C439   1.411       .  S
C439        C440   1.205       .  T
C441        C442   1.206       .  T
C442        C443   1.413       .  S
C443        C444   1.206       .  T
C445        C446   1.204       .  T
C446        C447   1.410       .  S
C447        C448   1.204       .  T
C449        C450   1.205       .  T
C450        C451   1.411       .  S
C451        C452   1.205       .  T
C453        C454   1.205       .  T
C454        C455   1.411       .  S
C455        C456   1.205       .  T
C457        C458   1.409       .  A
C457        C462   1.401       .  A
C457        C601   1.444       .  S
C458        C459   1.400       .  A
C458        C605   1.444       .  S
C459        C460   1.400   1_556  A
C459        H464   1.086       .  S
C460        C461   1.410       .  A
C460        C597   1.444       .  S
C461        C462   1.401   1_554  A
C461        C593   1.444       .  S
C462        H463   1.086       .  S
O465        C468   1.265       .  A
O465       Cd470   2.470       .  S
C466        O475   1.264       .  A
C466        O471   1.264       .  A
C466        C494   1.466       .  S
O467        C473   1.264       .  A
O467       Cd470   2.465       .  S
C468        O476   1.264       .  A
C468        C492   1.466       .  S
C469        C596   1.435       .  S
C469        O474   1.263       .  A
C469        O472   1.263       .  A
Cd470       O477   2.476       .  S
Cd470       O476   2.469       .  S
Cd470       O475   2.470       .  S
Cd470       O471   2.474       .  S
Cd470       O474   2.471       .  S
Cd470       O472   2.467       .  S
C473        O477   1.264       .  A
O478        C481   1.265       .  A
O478       Cd483   2.473       .  S
C479        O488   1.264       .  A
C479        O484   1.264       .  A
C479        C507   1.466       .  S
O480        C486   1.264       .  A
O480       Cd483   2.468       .  S
C481        O489   1.264       .  A
C481        C505   1.466       .  S
C482        C600   1.435       .  S
C482        O487   1.264       .  A
C482        O485   1.263       .  A
Cd483       O490   2.473       .  S
Cd483       O489   2.467       .  S
Cd483       O488   2.472       .  S
Cd483       O484   2.471       .  S
Cd483       O487   2.471       .  S
Cd483       O485   2.467       .  S
C486        O490   1.264       .  A
O491        C494   1.264       .  A
C492        O501   1.264       .  A
C492        O497   1.264       .  A
O493       Cd496   2.459       .  S
C494        O502   1.264       .  A
C495        C592   1.435       .  S
C495        O500   1.263       .  A
Cd496       O503   2.474       .  S
Cd496       O501   2.472       .  S
Cd496       O497   2.470       .  S
Cd496       O500   2.469       .  S
O504        C507   1.264       .  A
C505        O514   1.264       .  A
C505        O510   1.264       .  A
O506       Cd509   2.461       .  S
C507        O515   1.264       .  A
C508        C588   1.434       .  S
C508        O513   1.263       .  A
Cd509       O516   2.473   1_655  S
Cd509       O514   2.477       .  S
Cd509       O510   2.468       .  S
Cd509       O513   2.468       .  S
C517        C522   1.400       .  A
C517        C585   1.444       .  S
C518        C519   1.400       .  A
C519        C520   1.400       .  A
C519        H524   1.086       .  S
C520        C584   1.443       .  S
C521        C522   1.400       .  A
C522        H523   1.087       .  S
O525        C528   1.264       .  A
O525       Cd530   2.470       .  S
C526        O535   1.264       .  A
C526        O531   1.264       .  A
C526        C554   1.465       .  S
O527        C533   1.264       .  A
O527       Cd530   2.462       .  S
C528        O536   1.264       .  A
C528        C552   1.464       .  S
C529        C604   1.435       .  S
C529        O534   1.263       .  A
C529        O532   1.263       .  A
Cd530       O537   2.475       .  S
Cd530       O536   2.463       .  S
Cd530       O535   2.467       .  S
Cd530       O531   2.467       .  S
Cd530       O534   2.467       .  S
Cd530       O532   2.469       .  S
C533        O537   1.265       .  A
O538        C541   1.264       .  A
O538       Cd543   2.470       .  S
C539        O548   1.264       .  A
C539        O544   1.264       .  A
C539        C567   1.465       .  S
O540        C546   1.264       .  A
O540       Cd543   2.465       .  S
C541        O549   1.264       .  A
C541        C565   1.466       .  S
C542        C608   1.434       .  S
C542        O547   1.263       .  A
C542        O545   1.263       .  A
Cd543       O550   2.475       .  S
Cd543       O549   2.472       .  S
Cd543       O548   2.471       .  S
Cd543       O544   2.468       .  S
Cd543       O547   2.467       .  S
Cd543       O545   2.466       .  S
C546        O550   1.265       .  A
O551        C554   1.264       .  A
C552        O561   1.264       .  A
C552        O557   1.264       .  A
O553       Cd556   2.462       .  S
C554        O562   1.264       .  A
C555        C581   1.434       .  S
C555        O560   1.263   1_455  A
Cd556       O563   2.474   1_455  S
Cd556       O561   2.469   1_455  S
Cd556       O557   2.463   1_455  S
Cd556       O560   2.465   1_455  S
O564        C567   1.265       .  A
C565        O574   1.264       .  A
C565        O570   1.264       .  A
O566       Cd569   2.464       .  S
C567        O575   1.264       .  A
C568        C577   1.433       .  S
Cd569       O576   2.477       .  S
Cd569       O574   2.472       .  S
Cd569       O570   2.471       .  S
C577        C578   1.205       .  T
C578        C579   1.410       .  S
C579        C580   1.204       .  T
C581        C582   1.205       .  T
C582        C583   1.410       .  S
C583        C584   1.205       .  T
C585        C586   1.205       .  T
C586        C587   1.411       .  S
C587        C588   1.205       .  T
C589        C590   1.206       .  T
C590        C591   1.412       .  S
C591        C592   1.206       .  T
C593        C594   1.206       .  T
C594        C595   1.412       .  S
C595        C596   1.206       .  T
C597        C598   1.206       .  T
C598        C599   1.412       .  S
C599        C600   1.206       .  T
C601        C602   1.205       .  T
C602        C603   1.411       .  S
C603        C604   1.205       .  T
C605        C606   1.205       .  T
C606        C607   1.411       .  S
C607        C608   1.205       .  T
