geometry optimzed in LAMMPS
_audit_creation_date              2020-12-01 
_audit_creation_method            'lammps2cif' 
_symmetry_space_group_name_H-M    'P1' 
_symmetry_Int_Tables_number       1 
_symmetry_cell_setting            triclinic 
loop_ 
_symmetry_equiv_pos_as_xyz 
  x,y,z 
_cell_length_a                    37.97844379 
_cell_length_b                    35.20275008401198 
_cell_length_c                    38.14312333395753 
_cell_angle_alpha                 90.46611829114639 
_cell_angle_beta                  88.60020259902618 
_cell_angle_gamma                 89.76166047516737 
loop_ 
_atom_site_label 
_atom_site_type_symbol 
_atom_site_fract_x 
_atom_site_fract_y 
_atom_site_fract_z 
_atom_site_charge 
O1          O  0.21783450  0.27346225  0.17290986    -0.79700
O2          O  0.28594572  0.31174869  0.29528343    -0.79800
O3          O  0.17554944  0.26184977  0.29063255    -0.79800
O4          O  0.31765472  0.26784888  0.21514356    -0.79700
O5          O  0.21507111  0.30585569  0.29607526    -0.79800
O6          O  0.26923953  0.30253740  0.21390538    -0.79800
O7          O  0.32969149  0.27170955  0.28607095    -0.79700
O8          O  0.19032224  0.27871810  0.22452698    -0.79800
C9          C  0.19273763  0.28711805  0.19174921     1.09900
C10         C  0.31831294  0.30435913  0.29568210     1.09800
C11         C  0.18395268  0.29458568  0.30099642     1.10000
C12         C  0.30123973  0.29764480  0.20539927     1.09800
O13         O  0.27672770  0.22666993  0.18298203    -0.79700
O14         O  0.21980539  0.23388092  0.33273939    -0.79800
O15         O  0.16382172  0.20962661  0.23836395    -0.79800
O16         O  0.30122577  0.19633278  0.29456597    -0.79700
O17         O  0.29132461  0.24081424  0.33438940    -0.79800
O18         O  0.21319892  0.20537093  0.20637158    -0.79800
O19         O  0.29053657  0.18964172  0.22577452    -0.79700
O20         O  0.21091519  0.19208457  0.28990183    -0.79800
Co21       Co  0.24104126  0.25596420  0.21363919     1.51500
Co22       Co  0.25305276  0.27242805  0.31157221     1.51700
Co23       Co  0.20518359  0.23294243  0.25556948     1.51600
Co24       Co  0.30665196  0.23158547  0.25556355     1.51500
O25         O  0.25569260  0.24786170  0.26337279    -1.41700
C26         C  0.28967517  0.19553159  0.19350886     1.09900
C27         C  0.20772667  0.20223432  0.32195148     1.10000
C28         C  0.18094350  0.19550634  0.21239970     1.09900
C29         C  0.30399368  0.20842807  0.32552683     1.09900
C30         C  0.38340458  0.35026986  0.35929070     0.86900
C31         C  0.40756857  0.37821771  0.33932447    -0.53400
C32         C  0.42467742  0.40283032  0.36074741     0.09800
C33         C  0.41636448  0.39685097  0.40015698     0.20800
C34         C  0.40745326  0.33033134  0.38551862    -0.54100
C35         C  0.42457233  0.35463947  0.40707869     0.09900
C36         C  0.35852900  0.37564140  0.38243107    -0.53600
C37         C  0.37600654  0.40021191  0.40384588     0.10500
H38         H  0.41094443  0.37839904  0.31097697     0.15000
H39         H  0.43064586  0.41668731  0.41755940     0.00700
H40         H  0.41060808  0.29971313  0.38705133     0.15300
H41         H  0.33000022  0.37419912  0.38195064     0.15100
C42         C  0.37176264  0.13576845  0.36058218     0.86900
C43         C  0.35259984  0.10954831  0.38697095    -0.53400
C44         C  0.37485930  0.08817563  0.40640685     0.09800
C45         C  0.41421599  0.09534656  0.39769106     0.20800
C46         C  0.39711600  0.15983175  0.38259107    -0.54100
C47         C  0.41947299  0.13857432  0.40202321     0.09900
C48         C  0.39604574  0.10895709  0.33848950    -0.53600
C49         C  0.41832183  0.08789090  0.35798687     0.10500
H50         H  0.32413930  0.10791332  0.38987426     0.15000
H51         H  0.43232378  0.07806147  0.41362822     0.00700
H52         H  0.39723362  0.19067508  0.38292670     0.15300
H53         H  0.39567457  0.10676671  0.31008530     0.15100
C54         C  0.14634393  0.36563588  0.36835214     0.86900
C55         C  0.16566604  0.39230507  0.39359089    -0.53400
C56         C  0.14346604  0.41351097  0.41440425     0.09800
C57         C  0.10417373  0.40628217  0.40782238     0.20800
C58         C  0.12179615  0.34168917  0.39216673    -0.54100
C59         C  0.09970866  0.36315551  0.41301648     0.09900
C60         C  0.12200052  0.39155437  0.34750996    -0.53600
C61         C  0.09982462  0.41282860  0.36811952     0.10500
H62         H  0.19413047  0.39419673  0.39502176     0.15000
H63         H  0.08607128  0.42381046  0.42468079     0.00700
H64         H  0.12187561  0.31084584  0.39248468     0.15300
H65         H  0.12235138  0.39304914  0.31907002     0.15100
C66         C  0.13157150  0.14202489  0.36115776     0.86900
C67         C  0.10660701  0.11475555  0.34216742    -0.53400
C68         C  0.08494949  0.09491489  0.36419849     0.09800
C69         C  0.09018677  0.10426226  0.40331874     0.20800
C70         C  0.10687120  0.16771224  0.38438937    -0.54100
C71         C  0.08492857  0.14753035  0.40651453     0.09900
C72         C  0.15128559  0.11702205  0.38709685    -0.53600
C73         C  0.12975011  0.09782365  0.40948993     0.09700
H74         H  0.10643998  0.11095034  0.31388602     0.15000
H75         H  0.07274239  0.08772066  0.42129671     0.00700
H76         H  0.10688233  0.19851710  0.38347446     0.15300
H77         H  0.17977975  0.11447504  0.38765029     0.15100
N78         N  0.01020473  0.44715205  0.35788876    -0.36200
N79         N  0.05176513  0.99681022  0.34940118    -0.56800
N80         N  0.99629834  0.05197638  0.35510825    -0.36200
N81         N  0.45358652  0.99124853  0.34699430    -0.56800
C82         C  0.03969340  0.42809354  0.34810702     0.27400
C83         C  0.48587734  0.42226557  0.34606233     0.27400
C84         C  0.02389989  0.07540424  0.34948629     0.27400
C85         C  0.47948690  0.07033062  0.33963084     0.27400
C86         C  0.08381421  0.47808917  0.34858088     0.36000
C87         C  0.07177664  0.02820879  0.34625464     0.36000
C88         C  0.43888809  0.46963929  0.34308042     0.36000
C89         C  0.43331283  0.02160952  0.33996260     0.36000
C90         C  0.03124816  0.39518031  0.33029731    -0.21500
C91         C  0.49869258  0.38834501  0.33245986    -0.21500
C92         C  0.01192615  0.11055397  0.33916416    -0.21500
C93         C  0.49074004  0.10501891  0.32709807    -0.21500
C94         C  0.11698172  0.48987952  0.33814426    -0.22600
C95         C  0.10600021  0.01834390  0.33716756    -0.22600
C96         C  0.40588355  0.47985051  0.33224863    -0.22600
C97         C  0.39995743  0.01009952  0.33125276    -0.22600
C98         C  0.07398287  0.44027249  0.35420391    -0.17900
C99         C  0.45021162  0.43212852  0.34837239    -0.17900
C100        C  0.44404848  0.05955135  0.34346268    -0.17900
C101        C  0.05961949  0.06550938  0.35234853    -0.17900
H102        H  0.04936972  0.37488782  0.31821370     0.15000
H103        H  0.48368128  0.36578801  0.32060064     0.15000
H104        H  0.02781803  0.13447445  0.33100635     0.15000
H105        H  0.47442671  0.12781593  0.31761410     0.15000
H106        H  0.13922734  0.47206286  0.33070651     0.13300
H107        H  0.12734755  0.03734068  0.33046982     0.13300
H108        H  0.38514851  0.46094815  0.32429100     0.13300
H109        H  0.37863781  0.02790848  0.32259735     0.13300
H110        H  0.00902581  0.47109448  0.37410789     0.26500
H111        H  0.99730984  0.02535949  0.36647916     0.26500
C112        C  0.35747725  0.33836998  0.12850004     0.86900
C113        C  0.33548118  0.36649196  0.10657607    -0.53400
C114        C  0.35566072  0.38980020  0.08557036     0.09800
C115        C  0.39563468  0.38265073  0.08894289     0.20800
C116        C  0.38108119  0.31683735  0.10129982    -0.54100
C117        C  0.40128179  0.34008660  0.08074109     0.09900
C118        C  0.38300054  0.36332026  0.14899387    -0.53600
C119        C  0.40285813  0.38647996  0.12841139     0.10500
H120        H  0.30691287  0.36769542  0.10753918     0.15000
H121        H  0.41222530  0.40159887  0.07230514     0.00700
H122        H  0.38247811  0.28608042  0.09916637     0.15300
H123        H  0.38519509  0.36279450  0.17733014     0.15100
C124        C  0.14620416  0.36332397  0.13617569     0.86900
C125        C  0.12104533  0.38681283  0.16084798    -0.53400
C126        C  0.09698993  0.40823192  0.14322397     0.09800
C127        C  0.10107310  0.40450159  0.10295055     0.20800
C128        C  0.12171702  0.34001401  0.11263061    -0.54100
C129        C  0.09807700  0.36162884  0.09520475     0.09900
C130        C  0.16333526  0.39275370  0.11164555    -0.53600
C131        C  0.13988149  0.41431581  0.09424095     0.10500
H132        H  0.12235408  0.38669979  0.18923809     0.15000
H133        H  0.08197093  0.42205277  0.08844801     0.00700
H134        H  0.12312342  0.30931535  0.10983264     0.15300
H135        H  0.19160500  0.39573692  0.10764029     0.15100
N136        N  0.06117667  0.34703104  0.00746619    -0.36200
N137        N  0.00930229  0.34391922  0.44867618    -0.56800
N138        N  0.43964610  0.33690423  0.99179601    -0.36200
N139        N  0.00832056  0.34016301  0.06191065    -0.56800
C140        C  0.08274515  0.34068573  0.47301580     0.27400
C141        C  0.08173945  0.34056502  0.03522434     0.27400
C142        C  0.43615010  0.33670099  0.46905494     0.27400
C143        C  0.41904078  0.32559225  0.01902472     0.27400
C144        C  0.03814095  0.34410798  0.42727873     0.36000
C145        C  0.48509291  0.33735997  0.42591579     0.36000
C146        C  0.03666408  0.34184752  0.08256163     0.36000
C147        C  0.46324340  0.32059346  0.06479699     0.36000
C148        C  0.11530459  0.32724986  0.48268182    -0.21500
C149        C  0.11466879  0.32833144  0.02372636    -0.21500
C150        C  0.40337002  0.32204454  0.47739291    -0.21500
C151        C  0.38696559  0.31327418  0.00713743    -0.21500
C152        C  0.02864167  0.34032664  0.39281291    -0.22600
C153        C  0.49827734  0.33057783  0.39246567    -0.22600
C154        C  0.02651021  0.33799368  0.11724391    -0.22600
C155        C  0.47282892  0.31078912  0.09816367    -0.22600
C156        C  0.07302857  0.34751478  0.43824873    -0.17900
C157        C  0.07166905  0.34630144  0.07055055    -0.17900
C158        C  0.42832415  0.32673046  0.05435016    -0.17900
C159        C  0.44921920  0.34220902  0.43469647    -0.17900
H160        H  0.13688143  0.31845870  0.46539547     0.15000
H161        H  0.13640494  0.31977687  0.03971464     0.15000
H162        H  0.38401286  0.31180717  0.45929292     0.15000
H163        H  0.36551209  0.30148495  0.02267862     0.15000
H164        H  0.04615563  0.33652779  0.37030280     0.13300
H165        H  0.48332930  0.32520398  0.36922274     0.13300
H166        H  0.04368659  0.33500228  0.13921730     0.13300
H167        H  0.45537054  0.30369611  0.11991039     0.13300
H168        H  0.03668070  0.36032528  0.00808272     0.26500
H169        H  0.46339685  0.35124779  0.99362138     0.26500
C170        C  0.12533605  0.15284515  0.13871051     0.86900
C171        C  0.15015069  0.12935982  0.11397345    -0.53400
C172        C  0.13258461  0.10533258  0.09212607     0.09800
C173        C  0.09220210  0.10714396  0.09720806     0.20800
C174        C  0.09984905  0.17327305  0.11404191    -0.54100
C175        C  0.08243433  0.14933680  0.09222534     0.09900
C176        C  0.10253030  0.12335663  0.15820649    -0.53600
C177        C  0.08542124  0.09918512  0.13654306     0.10500
H178        H  0.17866609  0.13135889  0.11395744     0.15000
H179        H  0.07789107  0.08755548  0.07960111     0.00700
H180        H  0.09576515  0.20382589  0.11395987     0.15300
H181        H  0.09991619  0.12190785  0.18658287     0.15100
N182        N  0.00618564  0.44249582  0.15478803    -0.36200
N183        N  0.05393055  0.00012114  0.15206843    -0.56800
N184        N  0.99780097  0.05549807  0.14724220    -0.36200
N185        N  0.44225616  0.00585565  0.15193752    -0.56800
C186        C  0.03514905  0.42316310  0.16464713     0.27400
C187        C  0.46355437  0.40152034  0.14711558     0.27400
C188        C  0.02511701  0.07864707  0.15369493     0.27400
C189        C  0.46317876  0.08693964  0.14973134     0.27400
C190        C  0.07915216  0.47377874  0.16156463     0.36000
C191        C  0.07328692  0.03205510  0.15487812     0.36000
C192        C  0.41784508  0.45084341  0.14990161     0.36000
C193        C  0.41955014  0.03552696  0.15441526     0.36000
C194        C  0.02505217  0.39059233  0.18212776    -0.21500
C195        C  0.47305383  0.36631705  0.15963536    -0.21500
C196        C  0.01289421  0.11332312  0.16621224    -0.21500
C197        C  0.47214842  0.12401403  0.15722494    -0.21500
C198        C  0.11186803  0.48732211  0.17002684    -0.22600
C199        C  0.10682287  0.02319038  0.16526762    -0.22600
C200        C  0.38388672  0.46119580  0.15938458    -0.22600
C201        C  0.38647791  0.02296600  0.16424207    -0.22600
C202        C  0.07030502  0.43510869  0.15949533    -0.17900
C203        C  0.42881492  0.41360375  0.14237069    -0.17900
C204        C  0.42822788  0.07371839  0.14753287    -0.17900
C205        C  0.06077551  0.06911238  0.14903013    -0.17900
H206        H  0.04216234  0.37012922  0.19426159     0.15000
H207        H  0.45559797  0.34403643  0.16862695     0.15000
H208        H  0.02848918  0.13695256  0.17520686     0.15000
H209        H  0.45429760  0.14718984  0.16364627     0.15000
H210        H  0.13407939  0.47085718  0.17871586     0.13300
H211        H  0.12718939  0.04294815  0.17242540     0.13300
H212        H  0.36205999  0.44239421  0.16485510     0.13300
H213        H  0.36372974  0.04036755  0.17087132     0.13300
H214        H  0.00591756  0.46614267  0.13866555     0.26500
H215        H  0.99923018  0.02930387  0.13452356     0.26500
N216        N  0.14860756  0.44992610  0.00324114    -0.36200
N217        N  0.14469609  0.00326349  0.44655720    -0.56800
N218        N  0.14206381  0.06808833  0.00328439    -0.36200
N219        N  0.14979810  0.01007445  0.05454139    -0.56800
C220        C  0.15844448  0.42910977  0.47596717     0.27400
C221        C  0.15498272  0.42939811  0.03213280     0.27400
C222        C  0.14807620  0.08381641  0.47043796     0.27400
C223        C  0.15211540  0.08922991  0.03098232     0.27400
C224        C  0.15891856  0.47939220  0.43131224     0.36000
C225        C  0.14951813  0.03350481  0.42577655     0.36000
C226        C  0.15625107  0.48037297  0.07625639     0.36000
C227        C  0.15401829  0.04034934  0.07596230     0.36000
C228        C  0.16853839  0.39299362  0.48557927    -0.21500
C229        C  0.16759952  0.39384854  0.02256043    -0.21500
C230        C  0.16390168  0.11778759  0.47908136    -0.21500
C231        C  0.16628523  0.12312933  0.01957913    -0.21500
C232        C  0.16802119  0.49127886  0.39798747    -0.22600
C233        C  0.16159260  0.02221804  0.39289677    -0.22600
C234        C  0.16532307  0.49278906  0.10917241    -0.22600
C235        C  0.16352542  0.02869660  0.10877470    -0.22600
C236        C  0.15519117  0.44126584  0.44117088    -0.17900
C237        C  0.15047149  0.44225139  0.06687430    -0.17900
C238        C  0.14926832  0.07833946  0.06620108    -0.17900
C239        C  0.14273237  0.07106838  0.43603035    -0.17900
H240        H  0.17671585  0.36995528  0.46826969     0.15000
H241        H  0.17655679  0.37175133  0.03978088     0.15000
H242        H  0.17467113  0.13861836  0.46112981     0.15000
H243        H  0.17766812  0.14521913  0.03556770     0.15000
H244        H  0.17682246  0.47361413  0.37616607     0.13300
H245        H  0.17007255  0.04027982  0.37155283     0.13300
H246        H  0.17189787  0.47535015  0.13125753     0.13300
H247        H  0.17102625  0.04662358  0.13047900     0.13300
H248        H  0.13566397  0.47596804  0.00273120     0.26500
H249        H  0.12766638  0.04302195  0.00417223     0.26500
N250        N  0.99205610  0.15755051  0.05800312    -0.36200
N251        N  0.44037119  0.16112892  0.99347359    -0.56800
N252        N  0.99481836  0.15623206  0.44290387    -0.36200
N253        N  0.04532397  0.16721191  0.00308960    -0.56800
C254        C  0.46234410  0.16617391  0.06723876     0.27400
C255        C  0.02037321  0.16523655  0.07758762     0.27400
C256        C  0.48111016  0.15836278  0.41505432     0.27400
C257        C  0.02313335  0.16632755  0.42294752     0.27400
C258        C  0.41815711  0.16028157  0.02159769     0.36000
C259        C  0.43497143  0.16134189  0.46162674     0.36000
C260        C  0.06667324  0.16764435  0.03099941     0.36000
C261        C  0.06908704  0.16769660  0.46800506     0.36000
C262        C  0.46983220  0.18319137  0.09895232    -0.21500
C263        C  0.00935387  0.17615270  0.11098070    -0.21500
C264        C  0.49155043  0.16925119  0.38170803    -0.21500
C265        C  0.01208918  0.17850276  0.39064317    -0.21500
C266        C  0.38382923  0.16435127  0.01128936    -0.22600
C267        C  0.40086498  0.16948541  0.47255696    -0.22600
C268        C  0.10079770  0.17506419  0.02007734    -0.22600
C269        C  0.10313852  0.17441626  0.47807809    -0.22600
C270        C  0.42837576  0.15667069  0.05654778    -0.17900
C271        C  0.05585709  0.16188130  0.06627320    -0.17900
C272        C  0.05869905  0.16366552  0.43277217    -0.17900
C273        C  0.44575771  0.15447826  0.42661306    -0.17900
H274        H  0.45114213  0.19294520  0.11892986     0.15000
H275        H  0.02574634  0.18532788  0.13220552     0.15000
H276        H  0.47461900  0.17735618  0.36060932     0.15000
H277        H  0.02850434  0.18920869  0.36937731     0.15000
H278        H  0.36076732  0.16787385  0.02814386     0.13300
H279        H  0.37859911  0.17477930  0.45614452     0.13300
H280        H  0.12300274  0.18007954  0.03664419     0.13300
H281        H  0.12555734  0.18027423  0.46099707     0.13300
H282        H  0.99272298  0.14480139  0.03336063     0.26500
H283        H  0.99577921  0.14222580  0.46671472     0.26500
C284        C  0.35504285  0.14840137  0.12742914     0.86900
C285        C  0.37919511  0.12411455  0.15091748    -0.53400
C286        C  0.40084084  0.09947335  0.13233593     0.09800
C287        C  0.39602392  0.10166162  0.09234954     0.20800
C288        C  0.38049568  0.16811423  0.10157880    -0.54100
C289        C  0.40199180  0.14383609  0.08329588     0.09900
C290        C  0.33490465  0.11942685  0.10504100    -0.53600
C291        C  0.35634841  0.09473668  0.08679200     0.10500
H292        H  0.37952091  0.12669475  0.17928229     0.15000
H293        H  0.41350547  0.08191394  0.07704826     0.00700
H294        H  0.38146362  0.19866620  0.09786487     0.15300
H295        H  0.30639932  0.11870071  0.10357807     0.15100
N296        N  0.35173535  0.05256224  0.99958969    -0.36200
N297        N  0.34075366  0.48911553  0.05540151    -0.56800
N298        N  0.34646649  0.43530393  0.99815359    -0.36200
N299        N  0.35716890  0.49670402  0.43917730    -0.56800
C300        C  0.33969823  0.07366805  0.02706010     0.27400
C301        C  0.35848811  0.07358002  0.46853757     0.27400
C302        C  0.34036642  0.41098233  0.02496834     0.27400
C303        C  0.35425851  0.41712557  0.46433471     0.27400
C304        C  0.34067413  0.02702650  0.07437788     0.36000
C305        C  0.33572646  0.45697614  0.07405294     0.36000
C306        C  0.35744264  0.02226386  0.42510480     0.36000
C307        C  0.35411696  0.46569919  0.41839492     0.36000
C308        C  0.32345359  0.10615742  0.01525928    -0.21500
C309        C  0.34425735  0.10850364  0.47769802    -0.21500
C310        C  0.33061983  0.37610975  0.01164093    -0.21500
C311        C  0.34438649  0.38122370  0.47488550    -0.21500
C312        C  0.33132364  0.01696841  0.10815314    -0.22600
C313        C  0.32447781  0.46605127  0.10776673    -0.22600
C314        C  0.34742837  0.00953686  0.39263632    -0.22600
C315        C  0.34552421  0.47631584  0.38498391    -0.22600
C316        C  0.34371001  0.06458546  0.06246235    -0.17900
C317        C  0.36318190  0.06057618  0.43393187    -0.17900
C318        C  0.35922702  0.42797623  0.42914039    -0.17900
C319        C  0.34202349  0.41971165  0.06116872    -0.17900
H320        H  0.31032835  0.12789173  0.03104926     0.15000
H321        H  0.33406836  0.12970431  0.46021539     0.15000
H322        H  0.32235369  0.35154550  0.02652310     0.15000
H323        H  0.33814051  0.35735200  0.45815841     0.15000
H324        H  0.32263393  0.03584988  0.12914053     0.13300
H325        H  0.31608895  0.44647909  0.12797649     0.13300
H326        H  0.34093214  0.02676957  0.37038543     0.13300
H327        H  0.33894147  0.45767493  0.36346832     0.13300
H328        H  0.36780975  0.02865105  0.00098838     0.26500
H329        H  0.35732404  0.46215569  0.00023353     0.26500
C330        C  0.34153307  0.33264373  0.31196615    -0.16000
C331        C  0.36495425  0.32206931  0.33585505    -0.31200
H332        H  0.33523707  0.36259041  0.30918704     0.13000
H333        H  0.36946333  0.29192016  0.33998123     0.13600
C334        C  0.32500714  0.18584305  0.35029664    -0.16000
C335        C  0.34739472  0.15863668  0.33801144    -0.31200
H336        H  0.32399134  0.19296309  0.37806318     0.13000
H337        H  0.34896554  0.15307210  0.30994484     0.13600
C338        C  0.15895491  0.31771718  0.32170915    -0.16000
C339        C  0.17084908  0.34280542  0.34521033    -0.31200
H340        H  0.13091159  0.31227892  0.31986074     0.13000
H341        H  0.19903325  0.34678260  0.34795304     0.13600
C342        C  0.31802884  0.32451984  0.18067887    -0.16000
C343        C  0.33714717  0.31196149  0.15269578    -0.31200
H344        H  0.31333851  0.35476665  0.18437713     0.13000
H345        H  0.34008143  0.28151008  0.14853996     0.13600
C346        C  0.18504156  0.18085836  0.34661919    -0.16000
C347        C  0.15644962  0.16206756  0.33587330    -0.31200
H348        H  0.18935261  0.18428332  0.37452396     0.13000
H349        H  0.15166351  0.15985016  0.30794430     0.13600
C350        C  0.16589487  0.31271058  0.17730118    -0.16000
C351        C  0.17390258  0.33905856  0.15335365    -0.31200
H352        H  0.13899749  0.31059494  0.18743405     0.13000
H353        H  0.20131493  0.34230869  0.14504468     0.13600
C354        C  0.30662551  0.16711685  0.16998795    -0.16000
C355        C  0.33157043  0.17716461  0.14653322    -0.31200
H356        H  0.30345468  0.13725963  0.17629340     0.13000
H357        H  0.33600091  0.20724030  0.14194737     0.13600
C358        C  0.14344080  0.17985865  0.16343991    -0.16000
C359        C  0.16459569  0.16784754  0.18885198    -0.31200
H360        H  0.13814588  0.21013512  0.16126102     0.13000
H361        H  0.17101944  0.13791019  0.19125703     0.13600
O362        O  0.22182163  0.26154582  0.66432257    -0.79700
O363        O  0.28542417  0.27617548  0.81480822    -0.79800
O364        O  0.21038176  0.31397192  0.77431139    -0.79800
O365        O  0.33848146  0.26706209  0.71933675    -0.79700
O366        O  0.21408628  0.27769635  0.82044158    -0.79800
O367        O  0.29246662  0.27785426  0.68546793    -0.79800
O368        O  0.29250493  0.30428776  0.76364446    -0.79700
O369        O  0.21501731  0.30447552  0.70419070    -0.79800
C370        C  0.21048220  0.29352367  0.67301458     1.09900
C371        C  0.29596645  0.30454118  0.79663687     1.09800
C372        C  0.20678621  0.30932261  0.80676222     1.10000
C373        C  0.32546802  0.28223124  0.69271955     1.09800
O374        O  0.28267516  0.20696239  0.66978703    -0.79700
O375        O  0.20866876  0.20071161  0.79961276    -0.79800
O376        O  0.17868229  0.23031681  0.71036633    -0.79800
O377        O  0.32358043  0.23211518  0.77955240    -0.79700
O378        O  0.28202954  0.19443802  0.79801865    -0.79800
O379        O  0.22464664  0.19271176  0.70193583    -0.79800
O380        O  0.30469902  0.19998979  0.72065094    -0.79700
O381        O  0.17052646  0.24343863  0.78105452    -0.79800
Co382      Co  0.25303037  0.23899070  0.69846984     1.51500
Co383      Co  0.24763178  0.23686920  0.80450547     1.51700
Co384      Co  0.19732400  0.27176075  0.74312416     1.51600
Co385      Co  0.29555659  0.25352257  0.74051681     1.51500
O386        O  0.24533258  0.24564055  0.75148725    -1.41700
C387        C  0.30403207  0.19067076  0.68848697     1.09900
C388        C  0.17734689  0.21321533  0.79770544     1.10000
C389        C  0.19196728  0.19858416  0.69981855     1.09900
C390        C  0.31435114  0.20291253  0.79634839     1.09900
C391        C  0.36111404  0.35609775  0.85896462     0.86900
C392        C  0.38571761  0.38309660  0.83755086    -0.53400
C393        C  0.40601081  0.40628940  0.85804781     0.09800
C394        C  0.39944561  0.39997806  0.89781713     0.20800
C395        C  0.38605239  0.33455698  0.88317291    -0.54100
C396        C  0.40577850  0.35737809  0.90355155     0.09900
C397        C  0.33933551  0.38229492  0.88404086    -0.53600
C398        C  0.35949699  0.40505736  0.90467677     0.10500
H399        H  0.38708377  0.38354187  0.80910796     0.15000
H400        H  0.41579062  0.41841871  0.91466375     0.00700
H401        H  0.38803200  0.30379089  0.88428986     0.15300
H402        H  0.31079103  0.38175660  0.88625452     0.15100
C403        C  0.35976083  0.13549296  0.86222251     0.86900
C404        C  0.34180612  0.10898166  0.88919356    -0.53400
C405        C  0.36462540  0.08938073  0.90923857     0.09800
C406        C  0.40369481  0.09831819  0.90054857     0.20800
C407        C  0.38391257  0.16146275  0.88417868    -0.54100
C408        C  0.40734424  0.14182992  0.90406677     0.09900
C409        C  0.38529404  0.10950775  0.84075633    -0.53600
C410        C  0.40847032  0.09019346  0.86098350     0.10500
H411        H  0.31346758  0.10547516  0.89185416     0.15000
H412        H  0.42234190  0.08227045  0.91693448     0.00700
H413        H  0.38214816  0.19225281  0.88443829     0.15300
H414        H  0.38518813  0.10684995  0.81238370     0.15100
C415        C  0.14331828  0.35545105  0.87333607     0.86900
C416        C  0.16280904  0.38403005  0.89649342    -0.53400
C417        C  0.14066091  0.40768260  0.91500773     0.09800
C418        C  0.10133225  0.40069152  0.90842400     0.20800
C419        C  0.11785860  0.33469225  0.89844599    -0.54100
C420        C  0.09600167  0.35831681  0.91695437     0.09900
C421        C  0.11960836  0.37958106  0.84979734    -0.53600
C422        C  0.09774954  0.40364374  0.86822370     0.10500
H423        H  0.19126434  0.38513525  0.89843035     0.15000
H424        H  0.08334281  0.42000190  0.92362609     0.00700
H425        H  0.11734283  0.30406466  0.90172466     0.15300
H426        H  0.12002152  0.37774142  0.82136080     0.15100
C427        C  0.12984640  0.15187286  0.86807929     0.86900
C428        C  0.10704337  0.12396573  0.84710881    -0.53400
C429        C  0.08515710  0.10250351  0.86770995     0.09800
C430        C  0.08846021  0.11073447  0.90732235     0.20800
C431        C  0.10339436  0.17562366  0.89102355    -0.54100
C432        C  0.08157827  0.15373979  0.91177688     0.09900
C433        C  0.14933452  0.12698414  0.89430887    -0.53600
C434        C  0.12787660  0.10556655  0.91478541     0.09700
H435        H  0.10811024  0.12144057  0.81871403     0.15000
H436        H  0.07100541  0.09285737  0.92412322     0.00700
H437        H  0.10281027  0.20645213  0.89162024     0.15300
H438        H  0.17782236  0.12561320  0.89614449     0.15100
N439        N  0.00795718  0.43657198  0.85880445    -0.36200
N440        N  0.05305824  0.00454674  0.85212364    -0.56800
N441        N  0.99663313  0.05966768  0.85838174    -0.36200
N442        N  0.45075299  0.99600527  0.84938609    -0.56800
C443        C  0.03712017  0.41696819  0.84884756     0.27400
C444        C  0.46815310  0.42443191  0.83895723     0.27400
C445        C  0.02408475  0.08345135  0.85331810     0.27400
C446        C  0.47135449  0.07751631  0.84537638     0.27400
C447        C  0.08125863  0.46759110  0.84500350     0.36000
C448        C  0.07218970  0.03633468  0.84701166     0.36000
C449        C  0.42254448  0.47385254  0.84376601     0.36000
C450        C  0.42839126  0.02502466  0.84355703     0.36000
C451        C  0.02791657  0.38194394  0.83540300    -0.21500
C452        C  0.47905204  0.39185276  0.82132526    -0.21500
C453        C  0.01169731  0.11926870  0.84558386    -0.21500
C454        C  0.48040104  0.11380304  0.83516858    -0.21500
C455        C  0.11389948  0.47926582  0.83275046    -0.22600
C456        C  0.10570523  0.02686783  0.83502292    -0.22600
C457        C  0.38919724  0.48652536  0.83643500    -0.22600
C458        C  0.39587680  0.01116025  0.83460419    -0.22600
C459        C  0.07181754  0.42972716  0.85208366    -0.17900
C460        C  0.43259012  0.43524145  0.84500961    -0.17900
C461        C  0.43657137  0.06377642  0.84755917    -0.17900
C462        C  0.06003101  0.07353571  0.85435820    -0.17900
H463        H  0.04551741  0.36051778  0.82431516     0.15000
H464        H  0.46245391  0.37070972  0.80938838     0.15000
H465        H  0.02731984  0.14374836  0.83840958     0.15000
H466        H  0.46274643  0.13570971  0.82628289     0.15000
H467        H  0.13586852  0.46130102  0.82472243     0.13300
H468        H  0.12624217  0.04616005  0.82658340     0.13300
H469        H  0.36717549  0.46936626  0.82855923     0.13300
H470        H  0.37344087  0.02749191  0.82631166     0.13300
H471        H  0.00761865  0.46201917  0.87285796     0.26500
H472        H  0.99812128  0.03226961  0.86789920     0.26500
C473        C  0.36031385  0.35422942  0.62664703     0.86900
C474        C  0.34150623  0.38093839  0.60151493    -0.53400
C475        C  0.36391724  0.40384509  0.58319830     0.09800
C476        C  0.40312758  0.39772742  0.59180338     0.20800
C477        C  0.38742588  0.33209481  0.60355701    -0.54100
C478        C  0.40999641  0.35501313  0.58532047     0.09900
C479        C  0.38220773  0.38039342  0.65023524    -0.53600
C480        C  0.40501746  0.40282214  0.63195870     0.10500
H481        H  0.31318190  0.38152952  0.59822150     0.15000
H482        H  0.42141737  0.41645726  0.57680929     0.00700
H483        H  0.38875558  0.30129915  0.60197641     0.15300
H484        H  0.37995877  0.38101701  0.67867879     0.15100
C485        C  0.14047535  0.36028186  0.63687281     0.86900
C486        C  0.11347462  0.38430198  0.65824151    -0.53400
C487        C  0.09221170  0.40573302  0.63817159     0.09800
C488        C  0.09999618  0.40129617  0.59846613     0.20800
C489        C  0.11820564  0.33654244  0.61126387    -0.54100
C490        C  0.09674622  0.35824397  0.59107510     0.09900
C491        C  0.16081084  0.38881198  0.61375175    -0.53600
C492        C  0.13961411  0.41043482  0.59362005     0.10500
H493        H  0.11151384  0.38468699  0.68670117     0.15000
H494        H  0.08271385  0.41904856  0.58208816     0.00700
H495        H  0.11890568  0.30573172  0.60972394     0.15300
H496        H  0.18930102  0.39151132  0.61321362     0.15100
N497        N  0.06220776  0.34701462  0.50193058    -0.36200
N498        N  0.00751660  0.33579909  0.95577020    -0.56800
N499        N  0.45370467  0.34421047  0.49870146    -0.36200
N500        N  0.00738520  0.33781505  0.55509647    -0.56800
C501        C  0.08117310  0.34013888  0.97839338     0.27400
C502        C  0.08187847  0.33890317  0.52998102     0.27400
C503        C  0.42048405  0.33298403  0.96266798     0.27400
C504        C  0.43180816  0.33562662  0.52586821     0.27400
C505        C  0.03578056  0.33674073  0.93376238     0.36000
C506        C  0.46693226  0.34019427  0.91736896     0.36000
C507        C  0.03548896  0.33767708  0.57627389     0.36000
C508        C  0.47322714  0.33760092  0.57464980     0.36000
C509        C  0.11431925  0.32809434  0.98762493    -0.21500
C510        C  0.11477668  0.32618197  0.51884262    -0.21500
C511        C  0.38795356  0.31777818  0.97127350    -0.21500
C512        C  0.40057217  0.32142845  0.51347946    -0.21500
C513        C  0.02604790  0.32896365  0.89988232    -0.22600
C514        C  0.47784768  0.33651432  0.88280547    -0.22600
C515        C  0.02459147  0.33055708  0.61029284    -0.22600
C516        C  0.48060626  0.33232968  0.60946858    -0.22600
C517        C  0.07023273  0.34472830  0.94380327    -0.17900
C518        C  0.07092887  0.34312912  0.56531711    -0.17900
C519        C  0.43902797  0.34109118  0.56148717    -0.17900
C520        C  0.43170725  0.34287993  0.92862750    -0.17900
H521        H  0.13569771  0.31920804  0.97014717     0.15000
H522        H  0.13584420  0.31636998  0.53511692     0.15000
H523        H  0.36744795  0.30993985  0.95345198     0.15000
H524        H  0.37848679  0.31085970  0.52890378     0.15000
H525        H  0.04336470  0.32487987  0.87727696     0.13300
H526        H  0.46133338  0.33241336  0.86043812     0.13300
H527        H  0.04129221  0.32580601  0.63238022     0.13300
H528        H  0.46177685  0.32717300  0.63055975     0.13300
H529        H  0.03803067  0.36095960  0.50268068     0.26500
H530        H  0.47726604  0.35895242  0.50034537     0.26500
C531        C  0.12672146  0.15386744  0.63371187     0.86900
C532        C  0.15017479  0.12818047  0.60949130    -0.53400
C533        C  0.13138782  0.10412833  0.58869964     0.09800
C534        C  0.09117945  0.10787099  0.59430550     0.20800
C535        C  0.10163097  0.17422069  0.60830376    -0.54100
C536        C  0.08311848  0.15006792  0.58744270     0.09900
C537        C  0.10294734  0.12626903  0.65459765    -0.53600
C538        C  0.08434683  0.10206491  0.63404366     0.10500
H539        H  0.17875089  0.12907532  0.60877928     0.15000
H540        H  0.07596289  0.08813812  0.57762747     0.00700
H541        H  0.09894790  0.20488122  0.60679795     0.15300
H542        H  0.10091055  0.12602370  0.68304175     0.15100
N543        N  0.00129865  0.44031452  0.64788798    -0.36200
N544        N  0.05143339  0.00388869  0.65246410    -0.56800
N545        N  0.99566374  0.05935661  0.64635360    -0.36200
N546        N  0.45509069  0.00602037  0.64895452    -0.56800
C547        C  0.03004076  0.42015825  0.65662626     0.27400
C548        C  0.46363495  0.42008942  0.65572494     0.27400
C549        C  0.02316384  0.08286494  0.65134067     0.27400
C550        C  0.48120123  0.08570922  0.64566102     0.27400
C551        C  0.07399546  0.47062412  0.65756067     0.36000
C552        C  0.07121034  0.03567650  0.65420781     0.36000
C553        C  0.41753384  0.46844121  0.65130142     0.36000
C554        C  0.43456129  0.03737092  0.65109441     0.36000
C555        C  0.01994664  0.38615957  0.67155428    -0.21500
C556        C  0.47314097  0.38679455  0.67201936    -0.21500
C557        C  0.01085457  0.11847954  0.66110473    -0.21500
C558        C  0.49205520  0.12180309  0.65468899    -0.21500
C559        C  0.10657803  0.48324709  0.66755662    -0.22600
C560        C  0.10525206  0.02635095  0.66265913    -0.22600
C561        C  0.38381203  0.47960430  0.66088733    -0.22600
C562        C  0.40055994  0.02767097  0.66067505    -0.22600
C563        C  0.06496350  0.43246954  0.65250083    -0.17900
C564        C  0.42894182  0.43074476  0.64828807    -0.17900
C565        C  0.44580849  0.07455176  0.64375165    -0.17900
C566        C  0.05904670  0.07289058  0.64778504    -0.17900
H567        H  0.03695270  0.36489914  0.68266170     0.15000
H568        H  0.45566795  0.36488590  0.68180603     0.15000
H569        H  0.02646037  0.14280398  0.66838058     0.15000
H570        H  0.47547696  0.14547789  0.66287389     0.15000
H571        H  0.12861319  0.46600892  0.67539844     0.13300
H572        H  0.12624447  0.04586710  0.66848584     0.13300
H573        H  0.36247983  0.46159454  0.66988420     0.13300
H574        H  0.37908942  0.04694504  0.66706069     0.13300
H575        H  0.00119199  0.46518712  0.63342124     0.26500
H576        H  0.99717281  0.03226073  0.63550430     0.26500
N577        N  0.15232635  0.45065447  0.50490432    -0.36200
N578        N  0.14641359  0.00944392  0.94882128    -0.56800
N579        N  0.14030335  0.06415528  0.49979691    -0.36200
N580        N  0.14801794  0.00783398  0.55233444    -0.56800
C581        C  0.15614920  0.42727270  0.97533163     0.27400
C582        C  0.15733243  0.42827405  0.53289401     0.27400
C583        C  0.14845120  0.08896766  0.97439350     0.27400
C584        C  0.14968188  0.08617701  0.52723458     0.27400
C585        C  0.15599717  0.47454033  0.92821830     0.36000
C586        C  0.14777993  0.04033964  0.92834435     0.36000
C587        C  0.15714109  0.47738808  0.57938545     0.36000
C588        C  0.15201406  0.03858843  0.57318228     0.36000
C589        C  0.16834487  0.39251294  0.98647527    -0.21500
C590        C  0.16777527  0.39243277  0.52173121    -0.21500
C591        C  0.16403304  0.12294003  0.98352918    -0.21500
C592        C  0.16494828  0.11925476  0.51521904    -0.21500
C593        C  0.16340563  0.48425912  0.89393876    -0.22600
C594        C  0.15716691  0.03028983  0.89437609    -0.22600
C595        C  0.16560834  0.48856898  0.61287329    -0.22600
C596        C  0.16257008  0.02791718  0.60595000    -0.22600
C597        C  0.15238871  0.43717379  0.94007829    -0.17900
C598        C  0.15274304  0.43941350  0.56819256    -0.17900
C599        C  0.14669254  0.07617401  0.56273251    -0.17900
C600        C  0.14122656  0.07753588  0.94003819    -0.17900
H601        H  0.17787937  0.36916010  0.97022053     0.15000
H602        H  0.17518385  0.36884451  0.53802408     0.15000
H603        H  0.17357995  0.14478670  0.96596987     0.15000
H604        H  0.17662747  0.14143535  0.53087699     0.15000
H605        H  0.17052218  0.46512188  0.87262786     0.13300
H606        H  0.16313609  0.04926206  0.87294301     0.13300
H607        H  0.17287282  0.47033044  0.63419950     0.13300
H608        H  0.17033466  0.04645461  0.62710826     0.13300
H609        H  0.14082273  0.47737225  0.50552958     0.26500
H610        H  0.12586179  0.03912218  0.50095749     0.26500
N611        N  0.99413495  0.15397650  0.55051744    -0.36200
N612        N  0.45618851  0.15974612  0.48943318    -0.56800
N613        N  0.99187775  0.16092730  0.95047219    -0.36200
N614        N  0.04760271  0.16504356  0.49673707    -0.56800
C615        C  0.48087999  0.16456444  0.56237584     0.27400
C616        C  0.02151149  0.16457349  0.57034116     0.27400
C617        C  0.46743163  0.16654926  0.92023616     0.27400
C618        C  0.01985695  0.17152100  0.93022089     0.27400
C619        C  0.43491959  0.16319207  0.51815210     0.36000
C620        C  0.41979244  0.16206288  0.96510307     0.36000
C621        C  0.06863157  0.16653986  0.52494425     0.36000
C622        C  0.06650552  0.17072256  0.97424489     0.36000
C623        C  0.49106822  0.17891666  0.59434161    -0.21500
C624        C  0.00921058  0.17792337  0.60251356    -0.21500
C625        C  0.47846939  0.18008156  0.88792441    -0.21500
C626        C  0.00822745  0.18555084  0.89880178    -0.21500
C627        C  0.40085428  0.17071779  0.50856659    -0.22600
C628        C  0.38484155  0.16534537  0.97533121    -0.22600
C629        C  0.10279554  0.17387015  0.51420418    -0.22600
C630        C  0.10071530  0.17691911  0.98404303    -0.22600
C631        C  0.44577607  0.15912389  0.55287388    -0.17900
C632        C  0.05730881  0.16202151  0.56029179    -0.17900
C633        C  0.05557778  0.16811622  0.93914264    -0.17900
C634        C  0.43192007  0.15907041  0.93005334    -0.17900
H635        H  0.47403100  0.18901518  0.61559508     0.15000
H636        H  0.02468602  0.18963699  0.62340842     0.15000
H637        H  0.46195346  0.18778383  0.86637249     0.15000
H638        H  0.02426311  0.19722959  0.87770587     0.15000
H639        H  0.37863761  0.17733082  0.52581531     0.13300
H640        H  0.36265880  0.16924581  0.95849658     0.13300
H641        H  0.12477373  0.17957642  0.53088793     0.13300
H642        H  0.12290342  0.18341180  0.96688442     0.13300
H643        H  0.99580620  0.13933596  0.52674867     0.26500
H644        H  0.99297863  0.14578553  0.97368544     0.26500
C645        C  0.37418157  0.14965483  0.62583647     0.86900
C646        C  0.39906571  0.12575204  0.64825556    -0.53400
C647        C  0.42012992  0.10171965  0.62886775     0.09800
C648        C  0.41446961  0.10413631  0.58904167     0.20800
C649        C  0.39853013  0.17034759  0.59935508    -0.54100
C650        C  0.41979717  0.14642848  0.58014158     0.09900
C651        C  0.35366210  0.12090866  0.60379680    -0.53600
C652        C  0.37474306  0.09695745  0.58457719     0.10500
H653        H  0.39970363  0.12739426  0.67666906     0.15000
H654        H  0.43166777  0.08456146  0.57322960     0.00700
H655        H  0.39901569  0.20096743  0.59610961     0.15300
H656        H  0.32510474  0.11981937  0.60318936     0.15100
N657        N  0.36565864  0.05363817  0.49765077    -0.36200
N658        N  0.34579045  0.49938354  0.54529337    -0.56800
N659        N  0.35750958  0.43999690  0.49272840    -0.36200
N660        N  0.34561293  0.49802982  0.94895709    -0.56800
C661        C  0.35739235  0.07645031  0.52521705     0.27400
C662        C  0.34470248  0.07227850  0.97033121     0.27400
C663        C  0.35085712  0.41861556  0.52127594     0.27400
C664        C  0.34171825  0.41586185  0.96786931     0.27400
C665        C  0.35353486  0.03095154  0.57334198     0.36000
C666        C  0.34404976  0.46888523  0.56649983     0.36000
C667        C  0.35088230  0.02210694  0.92604196     0.36000
C668        C  0.34104248  0.46917716  0.92605915     0.36000
C669        C  0.34362459  0.11035371  0.51374697    -0.21500
C670        C  0.32654770  0.10523773  0.97916066    -0.21500
C671        C  0.34229345  0.38212441  0.51102437    -0.21500
C672        C  0.33137342  0.37923114  0.97553341    -0.21500
C673        C  0.34262276  0.02308536  0.60724058    -0.22600
C674        C  0.33319233  0.47994095  0.59982568    -0.22600
C675        C  0.34139915  0.00949506  0.89334101    -0.22600
C676        C  0.33206035  0.48308806  0.89377679    -0.22600
C677        C  0.36129122  0.06728862  0.56053127    -0.17900
C678        C  0.35348077  0.06056243  0.93593185    -0.17900
C679        C  0.34564498  0.43047305  0.93353205    -0.17900
C680        C  0.35224887  0.43123899  0.55629073    -0.17900
H681        H  0.33298369  0.13333301  0.52980798     0.15000
H682        H  0.31592102  0.12592068  0.96141425     0.15000
H683        H  0.33419862  0.35899898  0.52784127     0.15000
H684        H  0.32378557  0.35753135  0.95700061     0.15000
H685        H  0.33583559  0.04340335  0.62771716     0.13300
H686        H  0.32684460  0.46157568  0.62161597     0.13300
H687        H  0.33322932  0.02677223  0.87168177     0.13300
H688        H  0.32433697  0.46670199  0.87116239     0.13300
H689        H  0.37921832  0.02793756  0.49872515     0.26500
H690        H  0.36805741  0.46710956  0.49307489     0.26500
C691        C  0.31569752  0.33588138  0.81378712    -0.16000
C692        C  0.33920537  0.32762351  0.83852788    -0.31200
H693        H  0.31270025  0.36488379  0.80484448     0.13000
H694        H  0.34271665  0.29776360  0.84478849     0.13600
C695        C  0.34130065  0.18082714  0.81510455    -0.16000
C696        C  0.33269063  0.15612253  0.84053934    -0.31200
H697        H  0.36890334  0.18686029  0.80958153     0.13000
H698        H  0.30495994  0.15100682  0.84637131     0.13600
C699        C  0.18914703  0.33880489  0.82804755    -0.16000
C700        C  0.16703444  0.32815426  0.85393571    -0.31200
H701        H  0.19045021  0.36831006  0.81997991     0.13000
H702        H  0.16453686  0.29812743  0.86004835     0.13600
C703        C  0.34831396  0.30605292  0.67117881    -0.16000
C704        C  0.33570105  0.32914434  0.64688601    -0.31200
H705        H  0.37638647  0.30566103  0.67619353     0.13000
H706        H  0.30759095  0.33049188  0.64224941     0.13600
C707        C  0.14864452  0.19450407  0.81794090    -0.16000
C708        C  0.15634799  0.17358709  0.84598174    -0.31200
H709        H  0.12140137  0.19916556  0.81101025     0.13000
H710        H  0.18389631  0.17077084  0.85271194     0.13600
C711        C  0.18994438  0.31563205  0.64836139    -0.16000
C712        C  0.16381199  0.33801654  0.66046492    -0.31200
H713        H  0.19387604  0.31096447  0.62033525     0.13000
H714        H  0.15928303  0.34062028  0.68865274     0.13600
C715        C  0.32873060  0.16361908  0.67232140    -0.16000
C716        C  0.35037468  0.17595156  0.64650128    -0.31200
H717        H  0.32897954  0.13424282  0.68073098     0.13000
H718        H  0.35025895  0.20593234  0.63967773     0.13600
C719        C  0.14669476  0.18142782  0.65699384    -0.16000
C720        C  0.17051282  0.17038850  0.68063492    -0.31200
H721        H  0.14184910  0.21164896  0.65383519     0.13000
H722        H  0.17724498  0.14046973  0.68260460     0.13600
O723        O  0.22084293  0.78022987  0.16921574    -0.79700
O724        O  0.28052103  0.81416662  0.29593351    -0.79800
O725        O  0.17486918  0.75694995  0.28466021    -0.79800
O726        O  0.32026471  0.77712593  0.21597789    -0.79700
O727        O  0.21052213  0.80387121  0.29242576    -0.79800
O728        O  0.27077291  0.80989433  0.21242854    -0.79800
O729        O  0.32662635  0.77701311  0.28746415    -0.79700
O730        O  0.19055436  0.77871789  0.21968541    -0.79800
C731        C  0.19375899  0.78957775  0.18756459     1.09900
C732        C  0.31287875  0.80796467  0.29871503     1.09800
C733        C  0.18034314  0.78990279  0.29644824     1.10000
C734        C  0.30372780  0.80696402  0.20673257     1.09800
O735        O  0.28111284  0.73684653  0.17857846    -0.79700
O736        O  0.21754850  0.72948324  0.32575568    -0.79800
O737        O  0.16864730  0.70753833  0.23091282    -0.79800
O738        O  0.30217824  0.70011536  0.29007280    -0.79700
O739        O  0.28776415  0.74173882  0.33145561    -0.79800
O740        O  0.21806437  0.71031841  0.19858576    -0.79800
O741        O  0.29718405  0.69779691  0.21919987    -0.79700
O742        O  0.21726255  0.68983613  0.28046314    -0.79800
Co743      Co  0.24360663  0.76203249  0.20949792     1.51500
Co744      Co  0.24928822  0.77205413  0.30837639     1.51700
Co745      Co  0.20799042  0.73271106  0.24910514     1.51600
Co746      Co  0.30837844  0.73799061  0.25323373     1.51500
O747        O  0.25654775  0.75137746  0.25903094    -1.41700
C748        C  0.29618205  0.70619840  0.18722694     1.09900
C749        C  0.21065925  0.69689952  0.31257918     1.10000
C750        C  0.18678605  0.69694361  0.20432414     1.09900
C751        C  0.30265901  0.71083389  0.32171060     1.09900
C752        C  0.37335754  0.84599822  0.36970019     0.86900
C753        C  0.39741294  0.87319922  0.34912224    -0.53400
C754        C  0.41640478  0.89644140  0.36976795     0.09800
C755        C  0.41020027  0.88982669  0.40948130     0.20800
C756        C  0.39789545  0.82411752  0.39413338    -0.54100
C757        C  0.41709721  0.84713737  0.41515758     0.09900
C758        C  0.35059023  0.87167818  0.39452749    -0.53600
C759        C  0.37020296  0.89456224  0.41565016     0.10500
H760        H  0.39947918  0.87386099  0.32067208     0.15000
H761        H  0.42621839  0.90863450  0.42629996     0.00700
H762        H  0.39994193  0.79334841  0.39477956     0.15300
H763        H  0.32200172  0.87200110  0.39504284     0.15100
C764        C  0.37199669  0.64258606  0.35912758     0.86900
C765        C  0.35090655  0.61491406  0.38247416    -0.53400
C766        C  0.37136243  0.59371090  0.40369519     0.09800
C767        C  0.41115117  0.60213282  0.39946672     0.20800
C768        C  0.39398744  0.66664500  0.38456593    -0.54100
C769        C  0.41465227  0.64529831  0.40572918     0.09900
C770        C  0.39918926  0.61749503  0.33890278    -0.53600
C771        C  0.41975881  0.59635373  0.36008290     0.10500
H772        H  0.32243194  0.61230554  0.38222103     0.15000
H773        H  0.42782092  0.58473375  0.41677178     0.00700
H774        H  0.39318785  0.69746538  0.38579018     0.15300
H775        H  0.40181551  0.61631576  0.31049815     0.15100
C776        C  0.13865390  0.85685058  0.36558280     0.86900
C777        C  0.15723921  0.88494521  0.39016184    -0.53400
C778        C  0.13456008  0.90590446  0.41064843     0.09800
C779        C  0.09553022  0.89684262  0.40465704     0.20800
C780        C  0.11501788  0.83253058  0.39004681    -0.54100
C781        C  0.09237564  0.85371000  0.41068643     0.09900
C782        C  0.11334262  0.88134302  0.34448535    -0.53600
C783        C  0.09072166  0.90222315  0.36494810     0.10500
H784        H  0.18562808  0.88807130  0.39128377     0.15000
H785        H  0.07701860  0.91413404  0.42128814     0.00700
H786        H  0.11619730  0.80173524  0.39103628     0.15300
H787        H  0.11355263  0.88244394  0.31602821     0.15100
C788        C  0.13819164  0.65563235  0.37401411     0.86900
C789        C  0.11707578  0.62822758  0.35064435    -0.53400
C790        C  0.09524907  0.60466204  0.36935006     0.09800
C791        C  0.09681144  0.61062680  0.40932981     0.20800
C792        C  0.10985019  0.67670702  0.39675181    -0.54100
C793        C  0.08791227  0.65301034  0.41507845     0.09900
C794        C  0.15769410  0.63008013  0.39970482    -0.53600
C795        C  0.13615212  0.60642101  0.41816644     0.09700
H796        H  0.11879624  0.62796386  0.32219319     0.15000
H797        H  0.07929093  0.59127324  0.42455842     0.00700
H798        H  0.10778031  0.70742886  0.39875310     0.15300
H799        H  0.18605837  0.63033222  0.40270328     0.15100
N800        N  0.00090695  0.93589435  0.35680459    -0.36200
N801        N  0.06186607  0.50808561  0.35226227    -0.56800
N802        N  0.00699145  0.56389639  0.35948868    -0.36200
N803        N  0.45916211  0.50075526  0.34687879    -0.56800
C804        C  0.03011007  0.91645586  0.34685732     0.27400
C805        C  0.47716488  0.91187505  0.35045509     0.27400
C806        C  0.03467135  0.58687673  0.35253621     0.27400
C807        C  0.48249708  0.58135119  0.34508916     0.27400
C808        C  0.07402849  0.96706910  0.34590276     0.36000
C809        C  0.08199711  0.53923191  0.34777231     0.36000
C810        C  0.43216318  0.96085044  0.34636861     0.36000
C811        C  0.43788203  0.53091854  0.34198662     0.36000
C812        C  0.02118662  0.88200364  0.33204110    -0.21500
C813        C  0.48696204  0.87685440  0.33679805    -0.21500
C814        C  0.02277372  0.62217100  0.34259108    -0.21500
C815        C  0.49311686  0.61679963  0.33381411    -0.21500
C816        C  0.10742950  0.97932672  0.33699535    -0.22600
C817        C  0.11581024  0.52894676  0.33758405    -0.22600
C818        C  0.39926871  0.97125200  0.33520276    -0.22600
C819        C  0.40520641  0.51893076  0.33160835    -0.22600
C820        C  0.06456114  0.92906574  0.35098819    -0.17900
C821        C  0.44241765  0.92398550  0.35554943    -0.17900
C822        C  0.44734287  0.56907796  0.34730871    -0.17900
C823        C  0.07041443  0.57665855  0.35406712    -0.17900
H824        H  0.03894964  0.86100960  0.32049600     0.15000
H825        H  0.46977788  0.85482398  0.32729318     0.15000
H826        H  0.03868423  0.64588598  0.33391685     0.15000
H827        H  0.47653484  0.63918826  0.32398967     0.15000
H828        H  0.13002714  0.96181785  0.33007450     0.13300
H829        H  0.13706067  0.54772162  0.32994127     0.13300
H830        H  0.37749776  0.95264291  0.32968383     0.13300
H831        H  0.38367967  0.53664371  0.32333508     0.13300
H832        H  0.00004453  0.96089866  0.37154936     0.26500
H833        H  0.00802736  0.53722386  0.37082908     0.26500
C834        C  0.36961069  0.85428758  0.14035377     0.86900
C835        C  0.34708943  0.87841652  0.11547529    -0.53400
C836        C  0.36656353  0.90209642  0.09436648     0.09800
C837        C  0.40659456  0.89941330  0.10038728     0.20800
C838        C  0.39649434  0.83351207  0.11571941    -0.54100
C839        C  0.41573136  0.85712272  0.09465985     0.09900
C840        C  0.39175022  0.88313349  0.16094562    -0.53600
C841        C  0.41134308  0.90671358  0.14007171     0.10500
H842        H  0.31861465  0.87657005  0.11437123     0.15000
H843        H  0.42246863  0.91867897  0.08338775     0.00700
H844        H  0.40008744  0.80289118  0.11501406     0.15300
H845        H  0.39219117  0.88445863  0.18938087     0.15100
C846        C  0.14432411  0.86179219  0.13127145     0.86900
C847        C  0.11859008  0.88473807  0.15565857    -0.53400
C848        C  0.09433350  0.90545616  0.13773013     0.09800
C849        C  0.09848551  0.90130722  0.09753942     0.20800
C850        C  0.12064012  0.83747602  0.10769845    -0.54100
C851        C  0.09656274  0.85819604  0.08993869     0.09900
C852        C  0.16089406  0.89146554  0.10685714    -0.53600
C853        C  0.13706946  0.91227253  0.08942702     0.10500
H854        H  0.11986340  0.88508024  0.18405355     0.15000
H855        H  0.07912678  0.91830980  0.08283012     0.00700
H856        H  0.12292051  0.80681415  0.10510653     0.15300
H857        H  0.18908765  0.89565947  0.10335208     0.15100
N858        N  0.06053298  0.84375617  0.00187711    -0.36200
N859        N  0.00333577  0.83233313  0.44903995    -0.56800
N860        N  0.45554950  0.84414235  0.00547560    -0.36200
N861        N  0.00717932  0.83524893  0.05680197    -0.56800
C862        C  0.07695925  0.83479754  0.47200002     0.27400
C863        C  0.08104454  0.83688403  0.02957188     0.27400
C864        C  0.43242919  0.83193832  0.47662039     0.27400
C865        C  0.43490590  0.83700367  0.03403065     0.27400
C866        C  0.03171204  0.83212450  0.42697622     0.36000
C867        C  0.47775570  0.82607702  0.42960474     0.36000
C868        C  0.03583642  0.83568465  0.07711751     0.36000
C869        C  0.47885958  0.84253626  0.08004187     0.36000
C870        C  0.10988006  0.82306338  0.48216655    -0.21500
C871        C  0.11424216  0.82573022  0.01779506    -0.21500
C872        C  0.39979684  0.82003247  0.48875283    -0.21500
C873        C  0.40343238  0.82145672  0.02376498    -0.21500
C874        C  0.02156000  0.82546408  0.39304906    -0.22600
C875        C  0.48801465  0.81775608  0.39544635    -0.22600
C876        C  0.02604886  0.82935325  0.11160877    -0.22600
C877        C  0.48865320  0.83887254  0.11438282    -0.22600
C878        C  0.06667191  0.83802076  0.43697556    -0.17900
C879        C  0.07073554  0.84177722  0.06506993    -0.17900
C880        C  0.44381680  0.84423728  0.06904478    -0.17900
C881        C  0.44287909  0.83330196  0.44102375    -0.17900
H882        H  0.13140041  0.81326418  0.46526998     0.15000
H883        H  0.13613640  0.81732806  0.03364773     0.15000
H884        H  0.37865433  0.80896381  0.47320407     0.15000
H885        H  0.38224490  0.81138172  0.04067148     0.15000
H886        H  0.03865775  0.82100706  0.37031523     0.13300
H887        H  0.47107383  0.81217469  0.37366635     0.13300
H888        H  0.04344872  0.82535571  0.13328220     0.13300
H889        H  0.47143872  0.83379690  0.13679388     0.13300
H890        H  0.03590754  0.85668313  0.00314585     0.26500
H891        H  0.47888080  0.85945079  0.00510091     0.26500
C892        C  0.12957925  0.65431853  0.13309039     0.86900
C893        C  0.15419921  0.63160429  0.10778953    -0.53400
C894        C  0.13668766  0.60692405  0.08675093     0.09800
C895        C  0.09634144  0.60756341  0.09288419     0.20800
C896        C  0.10277284  0.67397923  0.10936582    -0.54100
C897        C  0.08522443  0.64943632  0.08826622     0.09900
C898        C  0.10816777  0.62430427  0.15341550    -0.53600
C899        C  0.09083596  0.59968834  0.13236416     0.10500
H900        H  0.18269950  0.63400889  0.10729759     0.15000
H901        H  0.08205109  0.58746718  0.07574520     0.00700
H902        H  0.09835708  0.70447146  0.10898231     0.15300
H903        H  0.10599725  0.62336722  0.18184245     0.15100
N904        N  0.00338320  0.93896638  0.15027081    -0.36200
N905        N  0.05716102  0.50287727  0.15464139    -0.56800
N906        N  0.00195801  0.55843659  0.14227911    -0.36200
N907        N  0.43895652  0.48146046  0.14926473    -0.56800
C908        C  0.03271678  0.91945357  0.15853932     0.27400
C909        C  0.47109688  0.92747289  0.15942547     0.27400
C910        C  0.02960859  0.58163020  0.14715208     0.27400
C911        C  0.46350850  0.56046365  0.15682096     0.27400
C912        C  0.07621741  0.97079857  0.15719739     0.36000
C913        C  0.07691838  0.53465066  0.15535161     0.36000
C914        C  0.42283269  0.97424168  0.15674989     0.36000
C915        C  0.41760480  0.51170102  0.15495223     0.36000
C916        C  0.02349420  0.88526416  0.17360205    -0.21500
C917        C  0.48222570  0.89491857  0.17596381    -0.21500
C918        C  0.01783715  0.61792525  0.15503501    -0.21500
C919        C  0.47412760  0.59476167  0.17070300    -0.21500
C920        C  0.10872628  0.98414621  0.16662824    -0.22600
C921        C  0.11036837  0.52615433  0.16633400    -0.22600
C922        C  0.38854271  0.98394164  0.16566323    -0.22600
C923        C  0.38374687  0.50004803  0.16264009    -0.22600
C924        C  0.06753252  0.93214956  0.15370070    -0.17900
C925        C  0.43558310  0.93676028  0.15332722    -0.17900
C926        C  0.42819871  0.54971229  0.15292663    -0.17900
C927        C  0.06524395  0.57101440  0.14563387    -0.17900
H928        H  0.04112935  0.86433942  0.18428079     0.15000
H929        H  0.46575432  0.87297657  0.18729551     0.15000
H930        H  0.03369859  0.64205794  0.16225935     0.15000
H931        H  0.45736732  0.61711838  0.18143550     0.15000
H932        H  0.13094149  0.96739305  0.17483437     0.13300
H933        H  0.13113665  0.54603706  0.17188308     0.13300
H934        H  0.36771860  0.96482635  0.17370138     0.13300
H935        H  0.36177907  0.51776649  0.17103879     0.13300
H936        H  0.00252067  0.96386645  0.13585503     0.26500
H937        H  0.00328677  0.53065938  0.13298185     0.26500
N938        N  0.14521454  0.95165803  0.00054450    -0.36200
N939        N  0.15299805  0.50956409  0.45265025    -0.56800
N940        N  0.14918782  0.56639504  0.99967064    -0.36200
N941        N  0.15408922  0.51004089  0.05420989    -0.56800
C942        C  0.14916876  0.92450200  0.47160885     0.27400
C943        C  0.15188134  0.93007046  0.02854113     0.27400
C944        C  0.15475239  0.58855881  0.47834311     0.27400
C945        C  0.15873978  0.58827404  0.02698906     0.27400
C946        C  0.15054985  0.97252646  0.42589526     0.36000
C947        C  0.15501957  0.54042845  0.43203584     0.36000
C948        C  0.15314202  0.97909709  0.07475314     0.36000
C949        C  0.15809166  0.54148948  0.07411538     0.36000
C950        C  0.16148245  0.88962787  0.48223434    -0.21500
C951        C  0.16414720  0.89475300  0.01773527    -0.21500
C952        C  0.17006917  0.62226387  0.48865571    -0.21500
C953        C  0.17386312  0.62149446  0.01497224    -0.21500
C954        C  0.16234258  0.98322888  0.39302725    -0.22600
C955        C  0.16552717  0.53022751  0.39845979    -0.22600
C956        C  0.16311805  0.98961461  0.10796579    -0.22600
C957        C  0.16624246  0.53179796  0.10787608    -0.22600
C958        C  0.14559031  0.93496836  0.43657809    -0.17900
C959        C  0.14734523  0.94151857  0.06356431    -0.17900
C960        C  0.15389372  0.57885667  0.06239569    -0.17900
C961        C  0.14896751  0.57784143  0.44350591    -0.17900
H962        H  0.17043478  0.86630762  0.46562100     0.15000
H963        H  0.17316965  0.87197250  0.03415624     0.15000
H964        H  0.18034838  0.64445492  0.47188429     0.15000
H965        H  0.18479290  0.64412420  0.03064531     0.15000
H966        H  0.17164183  0.96481092  0.37193308     0.13300
H967        H  0.17241433  0.54916090  0.37724910     0.13300
H968        H  0.17048173  0.97093188  0.12891299     0.13300
H969        H  0.17327980  0.55098140  0.12882459     0.13300
H970        H  0.13222701  0.97765461  0.00136294     0.26500
H971        H  0.13416932  0.54177670  0.00117824     0.26500
N972        N  0.99525306  0.65973202  0.05341590    -0.36200
N973        N  0.44355270  0.65328961  0.01247522    -0.56800
N974        N  0.99584981  0.66351643  0.45040080    -0.36200
N975        N  0.04894366  0.66131925  0.99843642    -0.56800
C976        C  0.46627263  0.65051369  0.08606503     0.27400
C977        C  0.02381306  0.66832557  0.07234661     0.27400
C978        C  0.47404921  0.66581829  0.42508247     0.27400
C979        C  0.02519425  0.67103923  0.43083005     0.27400
C980        C  0.42134916  0.65271964  0.04063949     0.36000
C981        C  0.42383625  0.66578616  0.46760575     0.36000
C982        C  0.07017824  0.66292279  0.02633609     0.36000
C983        C  0.07016509  0.66836054  0.47662623     0.36000
C984        C  0.47582117  0.66086153  0.11950406    -0.21500
C985        C  0.01320282  0.68451399  0.10405390    -0.21500
C986        C  0.48724521  0.67701204  0.39274785    -0.21500
C987        C  0.01560239  0.68475889  0.39857592    -0.21500
C988        C  0.38729409  0.65961626  0.03069301    -0.22600
C989        C  0.38846638  0.67016142  0.47575542    -0.22600
C990        C  0.10460655  0.66813397  0.01533507    -0.22600
C991        C  0.10426642  0.67344542  0.48730314    -0.22600
C992        C  0.43125433  0.64598965  0.07526201    -0.17900
C993        C  0.05903124  0.66123387  0.06174563    -0.17900
C994        C  0.06032465  0.66574806  0.44135392    -0.17900
C995        C  0.43795389  0.66094338  0.43333319    -0.17900
H996        H  0.45834124  0.66814949  0.14136270     0.15000
H997        H  0.02989838  0.69535549  0.12437485     0.15000
H998        H  0.47219390  0.68514175  0.37027779     0.15000
H999        H  0.03306836  0.69458265  0.37776976     0.15000
H1000       H  0.36445276  0.66363690  0.04778390     0.13300
H1001       H  0.36744906  0.67394585  0.45751140     0.13300
H1002       H  0.12674291  0.67389467  0.03177983     0.13300
H1003       H  0.12707955  0.67923622  0.47077301     0.13300
H1004       H  0.99524343  0.64372299  0.03038201     0.26500
H1005       H  0.99513246  0.64930603  0.47415500     0.26500
C1006       C  0.35777455  0.62905043  0.14552993     0.86900
C1007       C  0.38149883  0.60014787  0.16428745    -0.53400
C1008       C  0.40205964  0.57871482  0.14191309     0.09800
C1009       C  0.39659113  0.58771146  0.10299849     0.20800
C1010       C  0.38354933  0.65237576  0.12247185    -0.54100
C1011       C  0.40410277  0.63064671  0.10030969     0.09900
C1012       C  0.33625151  0.60502027  0.11977064    -0.53600
C1013       C  0.35652897  0.58316145  0.09746118     0.10500
H1014       H  0.38238418  0.59727753  0.19257698     0.15000
H1015       H  0.41318204  0.57006566  0.08475601     0.00700
H1016       H  0.38554209  0.68311405  0.12375376     0.15300
H1017       H  0.30767278  0.60511196  0.11939958     0.15100
N1018       N  0.34799715  0.55195112  0.00619392    -0.36200
N1019       N  0.34621200  0.99566197  0.05435990    -0.56800
N1020       N  0.35628726  0.93590203  0.00290297    -0.36200
N1021       N  0.35890344  0.99295519  0.44772469    -0.56800
C1022       C  0.33842260  0.57065893  0.03597585     0.27400
C1023       C  0.34791493  0.57675056  0.46313284     0.27400
C1024       C  0.35059476  0.91472718  0.03195734     0.27400
C1025       C  0.35202592  0.91417251  0.47674172     0.27400
C1026       C  0.33629646  0.51843018  0.07818814     0.36000
C1027       C  0.34396362  0.96579385  0.07631086     0.36000
C1028       C  0.35387344  0.52704168  0.41813536     0.36000
C1029       C  0.35301101  0.96122517  0.42870555     0.36000
C1030       C  0.32390621  0.60548199  0.02794671    -0.21500
C1031       C  0.33042140  0.61021426  0.47153563    -0.21500
C1032       C  0.34226403  0.87806881  0.02216719    -0.21500
C1033       C  0.34072686  0.87932397  0.48894107    -0.21500
C1034       C  0.32488062  0.50515697  0.11040270    -0.22600
C1035       C  0.33340168  0.97794746  0.10939261    -0.22600
C1036       C  0.34532941  0.51542977  0.38482599    -0.22600
C1037       C  0.34479886  0.97066917  0.39484986    -0.22600
C1038       C  0.34231371  0.55693893  0.07014962    -0.17900
C1039       C  0.35732180  0.56507254  0.42891800    -0.17900
C1040       C  0.35598262  0.92372943  0.44092983    -0.17900
C1041       C  0.35193901  0.92783342  0.06702777    -0.17900
H1042       H  0.31259650  0.62613030  0.04618320     0.15000
H1043       H  0.32086848  0.63121554  0.45348641     0.15000
H1044       H  0.33470287  0.85508492  0.03938781     0.15000
H1045       H  0.33240948  0.85538156  0.47327938     0.15000
H1046       H  0.31673567  0.52205150  0.13299647     0.13300
H1047       H  0.32680461  0.96028532  0.13162471     0.13300
H1048       H  0.33822293  0.53337811  0.36323607     0.13300
H1049       H  0.33651461  0.95147686  0.37440511     0.13300
H1050       H  0.36239701  0.52676964  0.00468076     0.26500
H1051       H  0.36624270  0.96327008  0.00246882     0.26500
C1052       C  0.33300871  0.83408097  0.32042662    -0.16000
C1053       C  0.35339194  0.82035313  0.34565678    -0.31200
H1054       H  0.32824086  0.86445316  0.31858303     0.13000
H1055       H  0.35639723  0.78977777  0.34835758     0.13600
C1056       C  0.32354209  0.68894228  0.34673384    -0.16000
C1057       C  0.34917282  0.66515759  0.33507176    -0.31200
H1058       H  0.31943073  0.69381668  0.37469978     0.13000
H1059       H  0.35385793  0.66169091  0.30699384     0.13600
C1060       C  0.15373507  0.80985713  0.31823534    -0.16000
C1061       C  0.16409889  0.83490645  0.34259258    -0.31200
H1062       H  0.12607434  0.80279664  0.31583067     0.13000
H1063       H  0.19203459  0.84038215  0.34557349     0.13600
C1064       C  0.32256993  0.83646853  0.18591625    -0.16000
C1065       C  0.34927057  0.82664736  0.16359032    -0.31200
H1066       H  0.31308746  0.86561421  0.18689809     0.13000
H1067       H  0.35671532  0.79682997  0.16167453     0.13600
C1068       C  0.18939216  0.66962745  0.33315024    -0.16000
C1069       C  0.16276832  0.68210349  0.35434065    -0.31200
H1070       H  0.19280151  0.63939387  0.32817446     0.13000
H1071       H  0.15844121  0.71251748  0.35744840     0.13600
C1072       C  0.16562210  0.81314669  0.17312363    -0.16000
C1073       C  0.17264097  0.83915955  0.14874935    -0.31200
H1074       H  0.13882836  0.80962141  0.18317156     0.13000
H1075       H  0.19993576  0.84358455  0.14051859     0.13600
C1076       C  0.31438570  0.68147356  0.16081650    -0.16000
C1077       C  0.33561627  0.65289851  0.17086034    -0.31200
H1078       H  0.31218132  0.68800310  0.13317009     0.13000
H1079       H  0.33812231  0.64720658  0.19865320     0.13600
C1080       C  0.14804111  0.68149018  0.15698023    -0.16000
C1081       C  0.17208254  0.66970449  0.17967462    -0.31200
H1082       H  0.14072232  0.71140194  0.15658777     0.13000
H1083       H  0.18050786  0.64020059  0.18024194     0.13600
O1084       O  0.22443656  0.79578561  0.67313618    -0.79700
O1085       O  0.28517694  0.80692649  0.80307371    -0.79800
O1086       O  0.17639793  0.76135960  0.78485669    -0.79800
O1087       O  0.32362268  0.78030559  0.71821606    -0.79700
O1088       O  0.21523335  0.80286286  0.79989884    -0.79800
O1089       O  0.27610844  0.81667489  0.71868596    -0.79800
O1090       O  0.32992765  0.76934401  0.78921618    -0.79700
O1091       O  0.19599442  0.79270620  0.72441956    -0.79800
C1092       C  0.19884516  0.80598392  0.69313685     1.09900
C1093       C  0.31760308  0.80011017  0.80262508     1.09800
C1094       C  0.18374713  0.79202513  0.80035514     1.10000
C1095       C  0.30865584  0.81200528  0.71159593     1.09800
O1096       O  0.28217336  0.74891700  0.67630437    -0.79700
O1097       O  0.21728660  0.72302838  0.82166404    -0.79800
O1098       O  0.16806100  0.72208097  0.72374589    -0.79800
O1099       O  0.30068797  0.69325743  0.78143802    -0.79700
O1100       O  0.28920590  0.72896952  0.82797682    -0.79800
O1101       O  0.21930735  0.72318141  0.69469213    -0.79800
O1102       O  0.29607945  0.70300199  0.71121808    -0.79700
O1103       O  0.21335094  0.69174472  0.77138407    -0.79800
Co1104     Co  0.24653601  0.77130745  0.71080119     1.51500
Co1105     Co  0.25201582  0.76539566  0.81011943     1.51700
Co1106     Co  0.20851821  0.74048337  0.74650982     1.51600
Co1107     Co  0.30941644  0.73666206  0.75036460     1.51500
O1108       O  0.25844008  0.75269618  0.75856338    -1.41700
C1109       C  0.29524230  0.71620473  0.68059574     1.09900
C1110       C  0.20760742  0.69379973  0.80424494     1.10000
C1111       C  0.18716201  0.71188183  0.69755640     1.09900
C1112       C  0.30107833  0.69825070  0.81412378     1.09900
C1113       C  0.37956752  0.84459959  0.86947105     0.86900
C1114       C  0.40287346  0.87227060  0.84830780    -0.53400
C1115       C  0.42025696  0.89760194  0.86854785     0.09800
C1116       C  0.41331737  0.89240328  0.90833368     0.20800
C1117       C  0.40443536  0.82539799  0.89521769    -0.54100
C1118       C  0.42199294  0.85040393  0.91567972     0.09900
C1119       C  0.35510118  0.87020245  0.89292126    -0.53600
C1120       C  0.37305466  0.89526932  0.91352380     0.10500
H1121       H  0.40529533  0.87195762  0.81987528     0.15000
H1122       H  0.42805491  0.91272787  0.92485451     0.00700
H1123       H  0.40804062  0.79485524  0.89703979     0.15300
H1124       H  0.32656985  0.86843402  0.89332320     0.15100
C1125       C  0.36372317  0.64999840  0.87897214     0.86900
C1126       C  0.34204702  0.62212557  0.90175381    -0.53400
C1127       C  0.36215767  0.59707196  0.91972854     0.09800
C1128       C  0.40220767  0.60223291  0.91303464     0.20800
C1129       C  0.38919796  0.66914032  0.90444447    -0.54100
C1130       C  0.40949680  0.64415785  0.92209310     0.09900
C1131       C  0.38769331  0.62463056  0.85491938    -0.53600
C1132       C  0.40799606  0.59951687  0.87289847     0.10500
H1133       H  0.31347014  0.62229115  0.90355622     0.15000
H1134       H  0.41861569  0.58192888  0.92777736     0.00700
H1135       H  0.39088688  0.69965896  0.90844191     0.15300
H1136       H  0.38883548  0.62674849  0.82653956     0.15100
C1137       C  0.14092019  0.86358236  0.86579265     0.86900
C1138       C  0.15971036  0.89175445  0.89018391    -0.53400
C1139       C  0.13722471  0.91275984  0.91085076     0.09800
C1140       C  0.09816320  0.90378962  0.90523423     0.20800
C1141       C  0.11756755  0.83943896  0.89058231    -0.54100
C1142       C  0.09526572  0.86059954  0.91150669     0.09900
C1143       C  0.11533080  0.88820047  0.84485490    -0.53600
C1144       C  0.09295830  0.90947914  0.86551717     0.10500
H1145       H  0.18811924  0.89470499  0.89124307     0.15000
H1146       H  0.07985584  0.92103731  0.92212692     0.00700
H1147       H  0.11874621  0.80864505  0.89165461     0.15300
H1148       H  0.11528414  0.88913238  0.81640911     0.15100
C1149       C  0.13514339  0.64834433  0.86438293     0.86900
C1150       C  0.11376619  0.61953240  0.84253095    -0.53400
C1151       C  0.09319779  0.59579460  0.86265242     0.09800
C1152       C  0.09610025  0.60330925  0.90241550     0.20800
C1153       C  0.10710058  0.66922546  0.88773572    -0.54100
C1154       C  0.08649600  0.64558920  0.90757593     0.09900
C1155       C  0.15615289  0.62412939  0.89002252    -0.53600
C1156       C  0.13580668  0.60064470  0.91001642     0.09700
H1157       H  0.11434177  0.61856064  0.81407536     0.15000
H1158       H  0.07962489  0.58402356  0.91882747     0.00700
H1159       H  0.10439168  0.69992434  0.88915437     0.15300
H1160       H  0.18459533  0.62535825  0.89209203     0.15100
N1161       N  0.00249787  0.94334197  0.85769112    -0.36200
N1162       N  0.05958926  0.49781179  0.84929423    -0.56800
N1163       N  0.00450055  0.55333675  0.85618765    -0.36200
N1164       N  0.44420140  0.50378256  0.84886359    -0.56800
C1165       C  0.03185743  0.92404187  0.84771508     0.27400
C1166       C  0.47996705  0.91848270  0.84921703     0.27400
C1167       C  0.03187912  0.57664126  0.84871367     0.27400
C1168       C  0.47020916  0.58402117  0.85429605     0.27400
C1169       C  0.07532805  0.97498124  0.84683078     0.36000
C1170       C  0.07939936  0.52901520  0.84326745     0.36000
C1171       C  0.43147481  0.96395161  0.84761163     0.36000
C1172       C  0.42369125  0.53525704  0.84824091     0.36000
C1173       C  0.02300318  0.88998710  0.83210781    -0.21500
C1174       C  0.49279289  0.88487489  0.83488497    -0.21500
C1175       C  0.01932013  0.61196269  0.83962142    -0.21500
C1176       C  0.48110016  0.62060305  0.84715273    -0.21500
C1177       C  0.10769425  0.98774961  0.83493992    -0.22600
C1178       C  0.11269210  0.51841673  0.83157112    -0.22600
C1179       C  0.39786857  0.97221763  0.83716440    -0.22600
C1180       C  0.38993982  0.52554278  0.83919420    -0.22600
C1181       C  0.06638579  0.93667426  0.85198535    -0.17900
C1182       C  0.44429976  0.92729526  0.85423981    -0.17900
C1183       C  0.43456703  0.57251905  0.85667179    -0.17900
C1184       C  0.06788874  0.56675658  0.84915913    -0.17900
H1185       H  0.04083473  0.86919062  0.82035317     0.15000
H1186       H  0.47763342  0.86156363  0.82452981     0.15000
H1187       H  0.03474570  0.63594403  0.83072809     0.15000
H1188       H  0.46449109  0.64458903  0.84111478     0.15000
H1189       H  0.12991244  0.97055768  0.82614806     0.13300
H1190       H  0.13357988  0.53700059  0.82257534     0.13300
H1191       H  0.37750888  0.95210635  0.83082800     0.13300
H1192       H  0.36849950  0.54483580  0.83407823     0.13300
H1193       H  0.00150188  0.96795886  0.87297293     0.26500
H1194       H  0.00603644  0.52656371  0.86714555     0.26500
C1195       C  0.37305894  0.85836843  0.64265651     0.86900
C1196       C  0.35009072  0.88326605  0.61870896    -0.53400
C1197       C  0.36936125  0.90584371  0.59630043     0.09800
C1198       C  0.40952238  0.90166655  0.60042372     0.20800
C1199       C  0.39781660  0.83640085  0.61676244    -0.54100
C1200       C  0.41662261  0.85907291  0.59451330     0.09900
C1201       C  0.39742500  0.88640330  0.66175118    -0.53600
C1202       C  0.41681207  0.90900377  0.63968135     0.10500
H1203       H  0.32152455  0.88237116  0.61887496     0.15000
H1204       H  0.42521539  0.92005337  0.58243046     0.00700
H1205       H  0.40041281  0.80566410  0.61610986     0.15300
H1206       H  0.39956710  0.88774610  0.69006366     0.15100
C1207       C  0.13878005  0.86162076  0.63154785     0.86900
C1208       C  0.11354148  0.88593958  0.65550385    -0.53400
C1209       C  0.09092834  0.90817271  0.63703752     0.09800
C1210       C  0.09572848  0.90371552  0.59687765     0.20800
C1211       C  0.11445617  0.83884777  0.60754096    -0.54100
C1212       C  0.09204801  0.86083431  0.58914229     0.09900
C1213       C  0.15733019  0.89025339  0.60756183    -0.53600
C1214       C  0.13492160  0.91220438  0.58948741     0.10500
H1215       H  0.11347396  0.88625654  0.68390621     0.15000
H1216       H  0.07755863  0.92173519  0.58170317     0.00700
H1217       H  0.11520481  0.80809355  0.60498644     0.15300
H1218       H  0.18577259  0.89237571  0.60438749     0.15100
N1219       N  0.05666894  0.84334330  0.50061689    -0.36200
N1220       N  0.00670766  0.83934445  0.95051744    -0.56800
N1221       N  0.45250411  0.84180940  0.50395495    -0.36200
N1222       N  0.00299947  0.83716659  0.55540717    -0.56800
C1223       C  0.08073829  0.83839629  0.97254514     0.27400
C1224       C  0.07684156  0.83831716  0.52891503     0.27400
C1225       C  0.43693439  0.83445901  0.97708185     0.27400
C1226       C  0.43249933  0.83732101  0.53344373     0.27400
C1227       C  0.03482337  0.83966531  0.92819177     0.36000
C1228       C  0.48361858  0.83567015  0.93106100     0.36000
C1229       C  0.03135152  0.83955457  0.57596204     0.36000
C1230       C  0.47829254  0.84231479  0.57786176     0.36000
C1231       C  0.11401747  0.82662480  0.98161303    -0.21500
C1232       C  0.10980020  0.82523978  0.51829852    -0.21500
C1233       C  0.40470211  0.81988084  0.98760653    -0.21500
C1234       C  0.39990837  0.82327085  0.52482981    -0.21500
C1235       C  0.02434050  0.83461913  0.89416580    -0.22600
C1236       C  0.49502113  0.82949278  0.89686700    -0.22600
C1237       C  0.02147061  0.83488070  0.61065012    -0.22600
C1238       C  0.48888280  0.83754034  0.61184513    -0.22600
C1239       C  0.06990101  0.84453625  0.93795644    -0.17900
C1240       C  0.06615318  0.84543194  0.56397038    -0.17900
C1241       C  0.44306625  0.84499770  0.56792241    -0.17900
C1242       C  0.44815812  0.83893638  0.94195553    -0.17900
H1243       H  0.13564146  0.81893776  0.96394467     0.15000
H1244       H  0.13124170  0.81728639  0.53491671     0.15000
H1245       H  0.38465869  0.80841123  0.97091174     0.15000
H1246       H  0.37890162  0.81504388  0.54282007     0.15000
H1247       H  0.04120788  0.83071517  0.87119288     0.13300
H1248       H  0.47889775  0.82317098  0.87463592     0.13300
H1249       H  0.03875681  0.83234628  0.63258718     0.13300
H1250       H  0.47217984  0.83223443  0.63459468     0.13300
H1251       H  0.03218538  0.85665784  0.50064553     0.26500
H1252       H  0.47671866  0.85533724  0.50211603     0.26500
C1253       C  0.12464708  0.65147087  0.64146369     0.86900
C1254       C  0.15000584  0.62814644  0.61683578    -0.53400
C1255       C  0.13289585  0.60419400  0.59473273     0.09800
C1256       C  0.09244717  0.60611217  0.59897338     0.20800
C1257       C  0.09940425  0.67204174  0.61686518    -0.54100
C1258       C  0.08237649  0.64837129  0.59460809     0.09900
C1259       C  0.10205215  0.62150721  0.66023731    -0.53600
C1260       C  0.08531648  0.59776193  0.63804132     0.10500
H1261       H  0.17848760  0.62902695  0.61706846     0.15000
H1262       H  0.07843405  0.58668065  0.58098014     0.00700
H1263       H  0.09527916  0.70259751  0.61713848     0.15300
H1264       H  0.09882258  0.61977687  0.68856238     0.15100
N1265       N  0.00064486  0.94260392  0.64792506    -0.36200
N1266       N  0.05196522  0.50018512  0.65301989    -0.56800
N1267       N  0.99705015  0.55653979  0.64356778    -0.36200
N1268       N  0.43774506  0.49881589  0.64411978    -0.56800
C1269       C  0.02966255  0.92356065  0.65786186     0.27400
C1270       C  0.47854290  0.92656802  0.65692856     0.27400
C1271       C  0.02429350  0.57917614  0.65131512     0.27400
C1272       C  0.46063074  0.57902114  0.64105562     0.27400
C1273       C  0.07378047  0.97426793  0.65609933     0.36000
C1274       C  0.07156647  0.53169144  0.65664010     0.36000
C1275       C  0.43328357  0.97616858  0.65370263     0.36000
C1276       C  0.41609776  0.52918295  0.64613939     0.36000
C1277       C  0.02001237  0.89006570  0.67397146    -0.21500
C1278       C  0.48849661  0.89344302  0.67324873    -0.21500
C1279       C  0.01218423  0.61481914  0.66116551    -0.21500
C1280       C  0.46909285  0.61570279  0.65047574    -0.21500
C1281       C  0.10690765  0.98726488  0.66375772    -0.22600
C1282       C  0.10495884  0.52227949  0.66713482    -0.22600
C1283       C  0.39973334  0.98867782  0.66226580    -0.22600
C1284       C  0.38298102  0.51847912  0.65790351    -0.22600
C1285       C  0.06459141  0.93567892  0.65270993    -0.17900
C1286       C  0.44340743  0.93775932  0.65124143    -0.17900
C1287       C  0.42603638  0.56624977  0.63719713    -0.17900
C1288       C  0.05983931  0.56868645  0.64980889    -0.17900
H1289       H  0.03732840  0.86951095  0.68568842     0.15000
H1290       H  0.47128786  0.87209373  0.68446247     0.15000
H1291       H  0.02768753  0.63837340  0.67046403     0.15000
H1292       H  0.45093444  0.63863658  0.65670229     0.15000
H1293       H  0.12940600  0.97022574  0.67065235     0.13300
H1294       H  0.12548044  0.54166889  0.67463978     0.13300
H1295       H  0.37757818  0.97140920  0.67036280     0.13300
H1296       H  0.36092464  0.53687691  0.66450705     0.13300
H1297       H  0.00032360  0.96687517  0.63253073     0.26500
H1298       H  0.99884347  0.52973533  0.63211808     0.26500
N1299       N  0.14310530  0.94736139  0.49970598    -0.36200
N1300       N  0.15255546  0.50592759  0.94848975    -0.56800
N1301       N  0.14699689  0.56714988  0.50665611    -0.36200
N1302       N  0.15326469  0.50822369  0.55895170    -0.56800
C1303       C  0.15226581  0.92997630  0.97186683     0.27400
C1304       C  0.15049582  0.92689328  0.52818886     0.27400
C1305       C  0.15678624  0.58610740  0.97027997     0.27400
C1306       C  0.15583797  0.58777647  0.53502622     0.27400
C1307       C  0.15151729  0.97941434  0.92710404     0.36000
C1308       C  0.15425025  0.53551191  0.92630392     0.36000
C1309       C  0.15260287  0.97748577  0.57299724     0.36000
C1310       C  0.15568181  0.53886370  0.58025706     0.36000
C1311       C  0.16445361  0.89474301  0.98167379    -0.21500
C1312       C  0.16223201  0.89108735  0.51826825    -0.21500
C1313       C  0.17272035  0.62006888  0.97883607    -0.21500
C1314       C  0.17064658  0.62180708  0.52477281    -0.21500
C1315       C  0.15965696  0.99137501  0.89362848    -0.22600
C1316       C  0.16219472  0.52318104  0.89270288    -0.22600
C1317       C  0.16300195  0.98888192  0.60582394    -0.22600
C1318       C  0.16461160  0.52773496  0.61342945    -0.22600
C1319       C  0.14846333  0.94136117  0.93708571    -0.17900
C1320       C  0.14684878  0.93969565  0.56288395    -0.17900
C1321       C  0.15049493  0.57672234  0.56989714    -0.17900
C1322       C  0.14994879  0.57366739  0.93609659    -0.17900
H1323       H  0.17379928  0.87204328  0.96453982     0.15000
H1324       H  0.17158948  0.86892850  0.53521338     0.15000
H1325       H  0.18278767  0.64131466  0.96091470     0.15000
H1326       H  0.18113188  0.64369148  0.54160912     0.15000
H1327       H  0.16780943  0.97379533  0.87151846     0.13300
H1328       H  0.16838223  0.54072691  0.87030272     0.13300
H1329       H  0.17109289  0.97079783  0.62695300     0.13300
H1330       H  0.17101540  0.54609633  0.63520077     0.13300
H1331       H  0.13044313  0.97354741  0.50001018     0.26500
H1332       H  0.13240677  0.54218864  0.50682845     0.26500
N1333       N  0.99320340  0.66157114  0.55792615    -0.36200
N1334       N  0.44263413  0.66574149  0.49722792    -0.56800
N1335       N  0.99575171  0.65665986  0.94587069    -0.36200
N1336       N  0.04806205  0.66582915  0.50475960    -0.56800
C1337       C  0.46094748  0.67084287  0.57193178     0.27400
C1338       C  0.02131429  0.66817734  0.57815389     0.27400
C1339       C  0.47039108  0.66162080  0.93923033     0.27400
C1340       C  0.02441128  0.66398772  0.92528827     0.27400
C1341       C  0.41881868  0.66626199  0.52414852     0.36000
C1342       C  0.42304337  0.65701317  0.98434009     0.36000
C1343       C  0.06868865  0.66579276  0.53313709     0.36000
C1344       C  0.07046683  0.66207844  0.96969330     0.36000
C1345       C  0.46834722  0.68657154  0.60422484    -0.21500
C1346       C  0.01001636  0.68211003  0.61051953    -0.21500
C1347       C  0.48137180  0.67785194  0.90799929    -0.21500
C1348       C  0.01384037  0.67741582  0.89325055    -0.21500
C1349       C  0.38526068  0.67028049  0.51172393    -0.22600
C1350       C  0.38838068  0.66238628  0.99484116    -0.22600
C1351       C  0.10331097  0.67180423  0.52323111    -0.22600
C1352       C  0.10477362  0.66767728  0.97934863    -0.22600
C1353       C  0.42686933  0.66349911  0.55985777    -0.17900
C1354       C  0.05674429  0.66149047  0.56804684    -0.17900
C1355       C  0.05974945  0.65854764  0.93472283    -0.17900
C1356       C  0.43499066  0.65544386  0.94923672    -0.17900
H1357       H  0.44958361  0.69683936  0.62392962     0.15000
H1358       H  0.02625373  0.69115649  0.63191248     0.15000
H1359       H  0.46484086  0.68940045  0.88795902     0.15000
H1360       H  0.03063885  0.68697140  0.87180648     0.15000
H1361       H  0.36129461  0.67427381  0.52719944     0.13300
H1362       H  0.36654351  0.66900680  0.97829475     0.13300
H1363       H  0.12509819  0.67641823  0.54041317     0.13300
H1364       H  0.12709062  0.67294051  0.96201605     0.13300
H1365       H  0.99360615  0.64721264  0.53400447     0.26500
H1366       H  0.99567533  0.64263571  0.96974530     0.26500
C1367       C  0.35363293  0.64248310  0.62977687     0.86900
C1368       C  0.37805226  0.61406830  0.64788098    -0.53400
C1369       C  0.39913870  0.59378835  0.62544545     0.09800
C1370       C  0.39407076  0.60362076  0.58667048     0.20800
C1371       C  0.37870261  0.66739077  0.60725575    -0.54100
C1372       C  0.39989592  0.64694130  0.58452734     0.09900
C1373       C  0.33304206  0.61809507  0.60335282    -0.53600
C1374       C  0.35442181  0.59747730  0.58077245     0.10500
H1375       H  0.37915405  0.61061921  0.67611500     0.15000
H1376       H  0.41147465  0.58690358  0.56841613     0.00700
H1377       H  0.37973845  0.69814455  0.60927120     0.15300
H1378       H  0.30452340  0.61615188  0.60346273     0.15100
N1379       N  0.35346923  0.55668277  0.49247274    -0.36200
N1380       N  0.35595910  0.99867454  0.55420980    -0.56800
N1381       N  0.35806109  0.93743635  0.50430156    -0.36200
N1382       N  0.35501187  0.99233443  0.94772202    -0.56800
C1383       C  0.34088522  0.57794151  0.51968627     0.27400
C1384       C  0.34118028  0.57538386  0.97926058     0.27400
C1385       C  0.35176427  0.91740193  0.53397575     0.27400
C1386       C  0.35279992  0.91271359  0.97472036     0.27400
C1387       C  0.33951820  0.53011409  0.56603659     0.36000
C1388       C  0.35015317  0.96998948  0.57686397     0.36000
C1389       C  0.34280309  0.53024183  0.93025905     0.36000
C1390       C  0.35140771  0.96073136  0.92783406     0.36000
C1391       C  0.32602328  0.61100461  0.50752173    -0.21500
C1392       C  0.32555260  0.60842965  0.99187890    -0.21500
C1393       C  0.34051889  0.88139577  0.52518736    -0.21500
C1394       C  0.34363910  0.87679787  0.98593357    -0.21500
C1395       C  0.33032504  0.51891465  0.59951802    -0.22600
C1396       C  0.34060271  0.98417197  0.60953203    -0.22600
C1397       C  0.33314537  0.52202504  0.89647881    -0.22600
C1398       C  0.34181759  0.97042153  0.89445202    -0.22600
C1399       C  0.34232951  0.56813935  0.55518263    -0.17900
C1400       C  0.34775370  0.56703969  0.94358881    -0.17900
C1401       C  0.35692855  0.92322546  0.93916234    -0.17900
C1402       C  0.35470171  0.93125050  0.56871091    -0.17900
H1403       H  0.31261267  0.63281807  0.52297314     0.15000
H1404       H  0.31557215  0.63171261  0.97660709     0.15000
H1405       H  0.33187902  0.85945122  0.54308532     0.15000
H1406       H  0.33737650  0.85261455  0.96959718     0.15000
H1407       H  0.32138091  0.53701385  0.62098470     0.13300
H1408       H  0.33230077  0.96802878  0.63224779     0.13300
H1409       H  0.32606191  0.54213801  0.87656037     0.13300
H1410       H  0.33451183  0.95117056  0.87365900     0.13300
H1411       H  0.36884853  0.53227456  0.49402873     0.26500
H1412       H  0.37000126  0.96380733  0.50277863     0.26500
C1413       C  0.33981798  0.82734973  0.82105794    -0.16000
C1414       C  0.36108068  0.81619701  0.84651789    -0.31200
H1415       H  0.33452882  0.85746170  0.81776506     0.13000
H1416       H  0.36478277  0.78600048  0.85109084     0.13600
C1417       C  0.31865133  0.66912365  0.83528477    -0.16000
C1418       C  0.34145875  0.67886889  0.86010856    -0.31200
H1419       H  0.31653872  0.63951199  0.82738448     0.13000
H1420       H  0.34499867  0.70883156  0.86617579     0.13600
C1421       C  0.15674151  0.81399780  0.82030663    -0.16000
C1422       C  0.16654166  0.84096753  0.84323736    -0.31200
H1423       H  0.12909415  0.80704570  0.81759232     0.13000
H1424       H  0.19440411  0.84674941  0.84626492     0.13600
C1425       C  0.32820934  0.84149904  0.69116685    -0.16000
C1426       C  0.35313588  0.83123696  0.66697506    -0.31200
H1427       H  0.31997715  0.87101499  0.69337484     0.13000
H1428       H  0.35919966  0.80114681  0.66402933     0.13600
C1429       C  0.18518094  0.66478481  0.82176082    -0.16000
C1430       C  0.15853669  0.67564494  0.84380062    -0.31200
H1431       H  0.18897706  0.63495709  0.81518005     0.13000
H1432       H  0.15411854  0.70588708  0.84812231     0.13600
C1433       C  0.17211646  0.83294052  0.68143346    -0.16000
C1434       C  0.16593209  0.83620794  0.64729857    -0.31200
H1435       H  0.15613107  0.84779204  0.70108784     0.13000
H1436       H  0.18191687  0.81965867  0.62862136     0.13600
C1437       C  0.31128667  0.69439855  0.65075175    -0.16000
C1438       C  0.33152098  0.66385590  0.65702948    -0.31200
H1439       H  0.30895017  0.70490233  0.62421507     0.13000
H1440       H  0.33409227  0.65496162  0.68407866     0.13600
C1441       C  0.13985289  0.67844839  0.66790486    -0.16000
C1442       C  0.17414313  0.68591870  0.67065873    -0.31200
H1443       H  0.12113191  0.69246141  0.68581270     0.13000
H1444       H  0.19345387  0.67405846  0.65231747     0.13600
O1445       O  0.72178566  0.28045437  0.16812018    -0.79700
O1446       O  0.78427760  0.31703427  0.29587235    -0.79800
O1447       O  0.67513831  0.26658487  0.28467136    -0.79800
O1448       O  0.82019050  0.27816370  0.21761604    -0.79700
O1449       O  0.71402173  0.31013030  0.29274929    -0.79800
O1450       O  0.77082461  0.31125489  0.21249416    -0.79800
O1451       O  0.82844618  0.27720075  0.28843741    -0.79700
O1452       O  0.69442907  0.29065798  0.21902918    -0.79800
C1453       C  0.69731556  0.29663432  0.18571893     1.09900
C1454       C  0.81650872  0.30965581  0.29793502     1.09800
C1455       C  0.68340074  0.29792263  0.29813029     1.10000
C1456       C  0.80393249  0.30818975  0.20833213     1.09800
O1457       O  0.78068181  0.23907342  0.17938398    -0.79700
O1458       O  0.71868631  0.23548464  0.32545479    -0.79800
O1459       O  0.66528604  0.22114446  0.22760757    -0.79800
O1460       O  0.80102154  0.20086959  0.29128175    -0.79700
O1461       O  0.78820673  0.24388506  0.33196905    -0.79800
O1462       O  0.71674375  0.21256183  0.20052700    -0.79800
O1463       O  0.79594494  0.19933159  0.21967411    -0.79700
O1464       O  0.71098818  0.19781310  0.27904016    -0.79800
Co1465     Co  0.74341414  0.26371827  0.20983724     1.51500
Co1466     Co  0.75137023  0.27642931  0.30852790     1.51700
Co1467     Co  0.70634585  0.24203915  0.24812495     1.51600
Co1468     Co  0.80814197  0.23891861  0.25427066     1.51500
O1469       O  0.75675506  0.25448780  0.25973491    -1.41700
C1470       C  0.79529470  0.20833492  0.18775482     1.09900
C1471       C  0.70922211  0.20399502  0.31200125     1.10000
C1472       C  0.68353793  0.20499099  0.20355622     1.09900
C1473       C  0.80029512  0.21126441  0.32312992     1.09900
C1474       C  0.87932850  0.35418077  0.36421803     0.86900
C1475       C  0.90474685  0.38097569  0.34443242    -0.53400
C1476       C  0.92206292  0.40528936  0.36592092     0.09800
C1477       C  0.91231530  0.40052152  0.40517642     0.20800
C1478       C  0.90216015  0.33403905  0.39132816    -0.54100
C1479       C  0.91940165  0.35828237  0.41285674     0.09900
C1480       C  0.85446406  0.38055864  0.38627855    -0.53600
C1481       C  0.87189128  0.40502079  0.40776292     0.10500
H1482       H  0.90848596  0.38089371  0.31611801     0.15000
H1483       H  0.92662039  0.42027452  0.42263713     0.00700
H1484       H  0.90524645  0.30340908  0.39278658     0.15300
H1485       H  0.82593293  0.37937583  0.38551267     0.15100
C1486       C  0.85878940  0.13387132  0.36539469     0.86900
C1487       C  0.83794439  0.10909325  0.39202069    -0.53400
C1488       C  0.85894349  0.08769581  0.41297346     0.09800
C1489       C  0.89879481  0.09362463  0.40528378     0.20800
C1490       C  0.88412201  0.15795108  0.38758889    -0.54100
C1491       C  0.90529983  0.13674834  0.40838027     0.09900
C1492       C  0.88309568  0.10573853  0.34509087    -0.53600
C1493       C  0.90420893  0.08502821  0.36593527     0.10500
H1494       H  0.80939257  0.10777971  0.39339590     0.15000
H1495       H  0.91598911  0.07637509  0.42220680     0.00700
H1496       H  0.88506378  0.18875970  0.38704369     0.15300
H1497       H  0.88441329  0.10322761  0.31668573     0.15100
C1498       C  0.64883818  0.36186923  0.37279532     0.86900
C1499       C  0.66810656  0.38901821  0.39778015    -0.53400
C1500       C  0.64572061  0.40995377  0.41881031     0.09800
C1501       C  0.60650813  0.40158935  0.41291577     0.20800
C1502       C  0.62507525  0.33735895  0.39687543    -0.54100
C1503       C  0.60294847  0.35832496  0.41814521     0.09900
C1504       C  0.62380578  0.38738415  0.35247948    -0.53600
C1505       C  0.60156715  0.40804277  0.37335122     0.10500
H1506       H  0.69655159  0.39155118  0.39871041     0.15000
H1507       H  0.58823566  0.41874372  0.42992687     0.00700
H1508       H  0.62533772  0.30651184  0.39670509     0.15300
H1509       H  0.62395285  0.38936985  0.32406090     0.15100
C1510       C  0.64443145  0.13185762  0.35059375     0.86900
C1511       C  0.61893932  0.10464239  0.33259510    -0.53400
C1512       C  0.59826331  0.08493192  0.35552688     0.09800
C1513       C  0.60516106  0.09398780  0.39439293     0.20800
C1514       C  0.62062200  0.15736116  0.37461962    -0.54100
C1515       C  0.59979803  0.13729006  0.39752881     0.09900
C1516       C  0.66561515  0.10693317  0.37562974    -0.53600
C1517       C  0.64510196  0.08734737  0.39886333     0.09700
H1518       H  0.61722613  0.10128037  0.30435677     0.15000
H1519       H  0.58835734  0.07753414  0.41302350     0.00700
H1520       H  0.62009163  0.18815886  0.37336141     0.15300
H1521       H  0.69417491  0.10505820  0.37509879     0.15100
N1522       N  0.51263462  0.44421794  0.35674549    -0.36200
N1523       N  0.55982756  0.98921179  0.34657194    -0.56800
N1524       N  0.50753870  0.04844459  0.34701225    -0.36200
N1525       N  0.94546603  0.99118092  0.35231738    -0.56800
C1526       C  0.54234653  0.42377356  0.35131438     0.27400
C1527       C  0.98282958  0.42567198  0.34780413     0.27400
C1528       C  0.53660640  0.06926495  0.34022624     0.27400
C1529       C  0.96679409  0.07226168  0.34943226     0.27400
C1530       C  0.58684481  0.47342618  0.35415329     0.36000
C1531       C  0.58148167  0.01886786  0.34119728     0.36000
C1532       C  0.93537794  0.47244943  0.35138956     0.36000
C1533       C  0.92353078  0.02053085  0.34690296     0.36000
C1534       C  0.53469011  0.38931188  0.33576291    -0.21500
C1535       C  0.99498095  0.39367140  0.33002885    -0.21500
C1536       C  0.52706527  0.10431292  0.32740280    -0.21500
C1537       C  0.97566275  0.10856404  0.33915247    -0.21500
C1538       C  0.62087079  0.48456210  0.34638060    -0.22600
C1539       C  0.61508884  0.00638595  0.33269382    -0.22600
C1540       C  0.90166867  0.48262977  0.34290972    -0.22600
C1541       C  0.89100288  0.00755938  0.33696091    -0.22600
C1542       C  0.57618851  0.43585615  0.35950990    -0.17900
C1543       C  0.94726629  0.43492270  0.35362353    -0.17900
C1544       C  0.93210145  0.05870544  0.35256125    -0.17900
C1545       C  0.57145322  0.05704193  0.34466032    -0.17900
H1546       H  0.55323202  0.36773376  0.32677225     0.15000
H1547       H  0.97934386  0.37197354  0.31764485     0.15000
H1548       H  0.54453720  0.12642845  0.31809287     0.15000
H1549       H  0.95781890  0.13067520  0.33107884     0.15000
H1550       H  0.64324589  0.46629119  0.34070835     0.13300
H1551       H  0.63729420  0.02358258  0.32459866     0.13300
H1552       H  0.88092109  0.46381607  0.33483182     0.13300
H1553       H  0.86891980  0.02450375  0.32876636     0.13300
H1554       H  0.51042739  0.46945160  0.37103823     0.26500
H1555       H  0.50678439  0.02286949  0.36028620     0.26500
C1556       C  0.87211249  0.35389478  0.14499997     0.86900
C1557       C  0.85084383  0.38028616  0.12106572    -0.53400
C1558       C  0.87152147  0.40309604  0.10035143     0.09800
C1559       C  0.91139253  0.39714116  0.10566057     0.20800
C1560       C  0.89718393  0.33180630  0.11971674    -0.54100
C1561       C  0.91758738  0.35443142  0.09904204     0.09900
C1562       C  0.89625850  0.38032726  0.16601291    -0.53600
C1563       C  0.91719180  0.40278862  0.14536339     0.10500
H1564       H  0.82230408  0.38027970  0.12001103     0.15000
H1565       H  0.92827815  0.41557402  0.08881329     0.00700
H1566       H  0.89891649  0.30101566  0.11838744     0.15300
H1567       H  0.89680840  0.38109390  0.19445721     0.15100
C1568       C  0.62810068  0.33614514  0.12313077     0.86900
C1569       C  0.60318137  0.36051459  0.14684821    -0.53400
C1570       C  0.58180018  0.38402707  0.12857608     0.09800
C1571       C  0.58698910  0.38052997  0.08841956     0.20800
C1572       C  0.60348563  0.31468213  0.09812422    -0.54100
C1573       C  0.58175199  0.33801054  0.08004777     0.09900
C1574       C  0.64806000  0.36469157  0.09964881    -0.53600
C1575       C  0.62653768  0.38791441  0.08133443     0.10500
H1576       H  0.60271415  0.35952730  0.17529656     0.15000
H1577       H  0.56947224  0.39959662  0.07355506     0.00700
H1578       H  0.60326332  0.28400219  0.09498918     0.15300
H1579       H  0.67658585  0.36629865  0.09761898     0.15100
N1580       N  0.54738103  0.33610856  0.99140380    -0.36200
N1581       N  0.51153181  0.33887346  0.44891881    -0.56800
N1582       N  0.95395433  0.33868456  0.00993163    -0.36200
N1583       N  0.49220551  0.32379098  0.04371877    -0.56800
C1584       C  0.58341287  0.33691791  0.47791582     0.27400
C1585       C  0.56639765  0.32353422  0.01842998     0.27400
C1586       C  0.93490545  0.33767206  0.47327391     0.27400
C1587       C  0.93472413  0.33109657  0.03919281     0.27400
C1588       C  0.54162169  0.33690861  0.42945192     0.36000
C1589       C  0.98137812  0.34354525  0.42744543     0.36000
C1590       C  0.52021696  0.31987898  0.06460791     0.36000
C1591       C  0.97994526  0.33898858  0.08383607     0.36000
C1592       C  0.61518013  0.32360385  0.48985844    -0.21500
C1593       C  0.59863159  0.30998068  0.00619349    -0.21500
C1594       C  0.90241561  0.32299608  0.48281684    -0.21500
C1595       C  0.90312116  0.31470011  0.03026519    -0.21500
C1596       C  0.53429176  0.33043433  0.39467997    -0.22600
C1597       C  0.99252869  0.33997254  0.39291035    -0.22600
C1598       C  0.50908964  0.31034307  0.09804435    -0.22600
C1599       C  0.99037610  0.33624906  0.11806792    -0.22600
C1600       C  0.57561695  0.34208641  0.44233943    -0.17900
C1601       C  0.55566413  0.32496006  0.05390114    -0.17900
C1602       C  0.94469425  0.33996326  0.07351240    -0.17900
C1603       C  0.94587201  0.34581614  0.43864133    -0.17900
H1604       H  0.63766260  0.31423369  0.47405037     0.15000
H1605       H  0.61907754  0.29712567  0.02147082     0.15000
H1606       H  0.88170296  0.31446058  0.46549971     0.15000
H1607       H  0.88259515  0.30464655  0.04798951     0.15000
H1608       H  0.55308504  0.32525442  0.37342695     0.13300
H1609       H  0.97616397  0.33581430  0.37044853     0.13300
H1610       H  0.52554993  0.30281646  0.11966121     0.13300
H1611       H  0.97352920  0.33162201  0.14084587     0.13300
H1612       H  0.52392286  0.35137271  0.99351673     0.26500
H1613       H  0.97671902  0.35493087  0.00887012     0.26500
C1614       C  0.62283547  0.16117313  0.13399687     0.86900
C1615       C  0.64741366  0.13706387  0.10967085    -0.53400
C1616       C  0.62975569  0.11266501  0.08839192     0.09800
C1617       C  0.58933305  0.11485446  0.09330710     0.20800
C1618       C  0.59748426  0.18128198  0.10885059    -0.54100
C1619       C  0.58010663  0.15697232  0.08725888     0.09900
C1620       C  0.59973551  0.13230225  0.15403317    -0.53600
C1621       C  0.58205094  0.10803154  0.13281980     0.10500
H1622       H  0.67594783  0.13881036  0.10956817     0.15000
H1623       H  0.57499800  0.09497012  0.07600046     0.00700
H1624       H  0.59396830  0.21187359  0.10787804     0.15300
H1625       H  0.59709574  0.13160415  0.18243583     0.15100
N1626       N  0.49252111  0.42259136  0.14078750    -0.36200
N1627       N  0.54963704  0.00975266  0.15177383    -0.56800
N1628       N  0.49284705  0.06568267  0.14553506    -0.36200
N1629       N  0.94740998  0.99492008  0.15407699    -0.56800
C1630       C  0.52052335  0.40044022  0.14786838     0.27400
C1631       C  0.97777180  0.42168050  0.16442303     0.27400
C1632       C  0.52055820  0.08920671  0.14910438     0.27400
C1633       C  0.96821281  0.07570804  0.15443187     0.27400
C1634       C  0.56631414  0.44868764  0.15194013     0.36000
C1635       C  0.56880966  0.04195433  0.15356138     0.36000
C1636       C  0.93075016  0.46945109  0.16087684     0.36000
C1637       C  0.92491313  0.02449632  0.15743112     0.36000
C1638       C  0.50933030  0.36562031  0.16005716    -0.21500
C1639       C  0.98861708  0.38965719  0.18200319    -0.21500
C1640       C  0.50845651  0.12548358  0.15677889    -0.21500
C1641       C  0.97669674  0.11142443  0.16671603    -0.21500
C1642       C  0.59920708  0.45909424  0.16293934    -0.22600
C1643       C  0.60256510  0.03346247  0.16366862    -0.22600
C1644       C  0.89697048  0.48045099  0.17039750    -0.22600
C1645       C  0.89194736  0.01220830  0.16794924    -0.22600
C1646       C  0.55587403  0.41131050  0.14471237    -0.17900
C1647       C  0.94236853  0.43167173  0.15872406    -0.17900
C1648       C  0.93376529  0.06241233  0.15097151    -0.17900
C1649       C  0.55646773  0.07885849  0.14591690    -0.17900
H1650       H  0.52563688  0.34273704  0.16940435     0.15000
H1651       H  0.97195299  0.36833686  0.19407980     0.15000
H1652       H  0.52423402  0.15010471  0.16271135     0.15000
H1653       H  0.95864431  0.13321707  0.17625377     0.15000
H1654       H  0.62051257  0.44036202  0.16991332     0.13300
H1655       H  0.62302090  0.05347759  0.16990719     0.13300
H1656       H  0.87596344  0.46239852  0.18004428     0.13300
H1657       H  0.86950173  0.02968315  0.17540969     0.13300
H1658       H  0.49312459  0.44869516  0.12824009     0.26500
H1659       H  0.49438095  0.03792378  0.13637618     0.26500
N1660       N  0.64041863  0.43341123  0.99409422    -0.36200
N1661       N  0.65739490  0.99407445  0.44018545    -0.56800
N1662       N  0.64379108  0.07220624  0.00036723    -0.36200
N1663       N  0.64851814  0.01637962  0.05440181    -0.56800
C1664       C  0.65543970  0.42769994  0.48070671     0.27400
C1665       C  0.64390198  0.40904785  0.02098724     0.27400
C1666       C  0.66486953  0.07521331  0.45981855     0.27400
C1667       C  0.65120503  0.09473671  0.02803885     0.27400
C1668       C  0.66382233  0.47582765  0.43491362     0.36000
C1669       C  0.66341431  0.02263512  0.41755876     0.36000
C1670       C  0.64524403  0.45481888  0.07032345     0.36000
C1671       C  0.65204180  0.04760537  0.07468258     0.36000
C1672       C  0.66464865  0.39215567  0.49242640    -0.21500
C1673       C  0.65386279  0.37371659  0.00810493    -0.21500
C1674       C  0.68064888  0.10949194  0.46749380    -0.21500
C1675       C  0.66531097  0.12859710  0.01644840    -0.21500
C1676       C  0.67636819  0.48632236  0.40217487    -0.22600
C1677       C  0.67412383  0.00841382  0.38523341    -0.22600
C1678       C  0.65422662  0.46272098  0.10440620    -0.22600
C1679       C  0.66124925  0.03768878  0.10809137    -0.22600
C1680       C  0.65684122  0.43836961  0.44535405    -0.17900
C1681       C  0.63928923  0.41806798  0.05687069    -0.17900
C1682       C  0.64666720  0.08490351  0.06342838    -0.17900
C1683       C  0.65912437  0.06129345  0.42583104    -0.17900
H1684       H  0.67501302  0.36874966  0.47673753     0.15000
H1685       H  0.66039457  0.34893133  0.02324021     0.15000
H1686       H  0.69134965  0.12976753  0.44895489     0.15000
H1687       H  0.67532266  0.15147333  0.03244192     0.15000
H1688       H  0.68575635  0.46770094  0.38127181     0.13300
H1689       H  0.68300466  0.02450282  0.36269147     0.13300
H1690       H  0.66052264  0.44239010  0.12440027     0.13300
H1691       H  0.66804790  0.05671764  0.12924589     0.13300
H1692       H  0.62982528  0.46056100  0.99589319     0.26500
H1693       H  0.63012520  0.04668168  0.00112678     0.26500
N1694       N  0.49240058  0.16006222  0.04840737    -0.36200
N1695       N  0.93824585  0.16026727  0.00591262    -0.56800
N1696       N  0.50982561  0.15258334  0.43463813    -0.36200
N1697       N  0.54705734  0.17150096  0.99608263    -0.56800
C1698       C  0.96315691  0.16232129  0.07902877     0.27400
C1699       C  0.51909083  0.17173225  0.06861560     0.27400
C1700       C  0.96588192  0.16082262  0.42322135     0.27400
C1701       C  0.53849247  0.15855923  0.41369623     0.27400
C1702       C  0.91692205  0.16003135  0.03479871     0.36000
C1703       C  0.91959141  0.15479240  0.46918848     0.36000
C1704       C  0.56728614  0.17352445  0.02476684     0.36000
C1705       C  0.58465428  0.16015229  0.45808856     0.36000
C1706       C  0.97308884  0.17431296  0.11187737    -0.21500
C1707       C  0.50590151  0.18667504  0.09984089    -0.21500
C1708       C  0.97580785  0.17523094  0.39089765    -0.21500
C1709       C  0.52793180  0.16939039  0.38084855    -0.21500
C1710       C  0.88231791  0.16447798  0.02554729    -0.22600
C1711       C  0.88482996  0.15772500  0.48011647    -0.22600
C1712       C  0.60159312  0.18155571  0.01506156    -0.22600
C1713       C  0.61900183  0.16604005  0.46754733    -0.22600
C1714       C  0.92811552  0.15570357  0.06945187    -0.17900
C1715       C  0.55503320  0.16889667  0.05963982    -0.17900
C1716       C  0.57387087  0.15419883  0.42343965    -0.17900
C1717       C  0.93085070  0.15253455  0.43393865    -0.17900
H1718       H  0.95587823  0.18182291  0.13388143     0.15000
H1719       H  0.52073108  0.19956270  0.12063791     0.15000
H1720       H  0.95860508  0.18327017  0.36999892     0.15000
H1721       H  0.54476244  0.17753023  0.35891421     0.15000
H1722       H  0.85981616  0.16821671  0.04313540     0.13300
H1723       H  0.86228279  0.16146932  0.46373453     0.13300
H1724       H  0.62295425  0.18774863  0.03238098     0.13300
H1725       H  0.64148024  0.17004513  0.45008003     0.13300
H1726       H  0.49475417  0.14443772  0.02518405     0.26500
H1727       H  0.50987285  0.14030858  0.45927748     0.26500
C1728       C  0.85915220  0.13604670  0.14372338     0.86900
C1729       C  0.88535222  0.10983487  0.16205148    -0.53400
C1730       C  0.90608252  0.08915420  0.13952320     0.09800
C1731       C  0.89860706  0.09629639  0.10058789     0.20800
C1732       C  0.88218964  0.16051698  0.11878428    -0.54100
C1733       C  0.90293284  0.13954321  0.09608422     0.09900
C1734       C  0.83805878  0.10961182  0.11964676    -0.53600
C1735       C  0.85879427  0.08872760  0.09694527     0.10500
H1736       H  0.88759738  0.10792217  0.19032120     0.15000
H1737       H  0.91553637  0.07916031  0.08223183     0.00700
H1738       H  0.88226119  0.19135960  0.11922412     0.15300
H1739       H  0.80955261  0.10732791  0.12073698     0.15100
N1740       N  0.84967790  0.05087267  0.00781241    -0.36200
N1741       N  0.85117249  0.49688328  0.05977481    -0.56800
N1742       N  0.86055031  0.43729893  0.00880197    -0.36200
N1743       N  0.84921076  0.49984772  0.44557522    -0.56800
C1744       C  0.84026263  0.07117383  0.03675505     0.27400
C1745       C  0.83938533  0.06961267  0.47423766     0.27400
C1746       C  0.85638612  0.41614590  0.03803683     0.27400
C1747       C  0.85295404  0.42007931  0.46907954     0.27400
C1748       C  0.84247223  0.02199230  0.08185281     0.36000
C1749       C  0.84977646  0.46730231  0.08210340     0.36000
C1750       C  0.84339726  0.02029814  0.42865628     0.36000
C1751       C  0.84694028  0.46925409  0.42415980     0.36000
C1752       C  0.82402116  0.10457415  0.02725579    -0.21500
C1753       C  0.82208495  0.10252347  0.48478678    -0.21500
C1754       C  0.84861073  0.37923927  0.02868146    -0.21500
C1755       C  0.84399270  0.38392163  0.47965019    -0.21500
C1756       C  0.83339294  0.01018591  0.11521392    -0.22600
C1757       C  0.83972695  0.47970728  0.11524634    -0.22600
C1758       C  0.83538635  0.00809078  0.39541482    -0.22600
C1759       C  0.83702532  0.48039695  0.39123136    -0.22600
C1760       C  0.84545857  0.06008728  0.07151832    -0.17900
C1761       C  0.84594670  0.05871544  0.43906820    -0.17900
C1762       C  0.85485303  0.43169101  0.43389678    -0.17900
C1763       C  0.85803032  0.42940731  0.07295534    -0.17900
H1764       H  0.81225673  0.12576235  0.04465230     0.15000
H1765       H  0.81065363  0.12375661  0.46809725     0.15000
H1766       H  0.84183099  0.35626789  0.04619845     0.15000
H1767       H  0.83590376  0.36061093  0.46307772     0.15000
H1768       H  0.82479910  0.02789934  0.13709843     0.13300
H1769       H  0.83400742  0.46232654  0.13787982     0.13300
H1770       H  0.82824720  0.02568625  0.37359629     0.13300
H1771       H  0.83104606  0.46212082  0.36926182     0.13300
H1772       H  0.86517305  0.02642501  0.00714384     0.26500
H1773       H  0.86994277  0.46518610  0.00767126     0.26500
C1774       C  0.83872005  0.33749832  0.31588026    -0.16000
C1775       C  0.86093706  0.32632695  0.34060078    -0.31200
H1776       H  0.83296231  0.36755077  0.31293017     0.13000
H1777       H  0.86479220  0.29609545  0.34486399     0.13600
C1778       C  0.81642473  0.18665983  0.34993388    -0.16000
C1779       C  0.83664306  0.15661368  0.34039137    -0.31200
H1780       H  0.81430117  0.19506712  0.37736960     0.13000
H1781       H  0.83920033  0.14944991  0.31266926     0.13600
C1782       C  0.65971062  0.31717370  0.32330668    -0.16000
C1783       C  0.67272279  0.33976827  0.34839244    -0.31200
H1784       H  0.63157080  0.31195083  0.32221408     0.13000
H1785       H  0.70099807  0.34374962  0.35019732     0.13600
C1786       C  0.82360076  0.33762951  0.18879667    -0.16000
C1787       C  0.85058987  0.32706303  0.16740154    -0.31200
H1788       H  0.81463773  0.36696567  0.18973445     0.13000
H1789       H  0.85716319  0.29700303  0.16537067     0.13600
C1790       C  0.69206826  0.17692354  0.33570953    -0.16000
C1791       C  0.66708080  0.15332072  0.32475270    -0.31200
H1792       H  0.69624767  0.18021815  0.36366946     0.13000
H1793       H  0.66192408  0.15076346  0.29691748     0.13600
C1794       C  0.67300242  0.32274442  0.16852746    -0.16000
C1795       C  0.65258621  0.31023536  0.14258215    -0.31200
H1796       H  0.67068577  0.35181229  0.17808182     0.13000
H1797       H  0.65389217  0.28042603  0.13496682     0.13600
C1798       C  0.81342576  0.18468500  0.16078960    -0.16000
C1799       C  0.83698949  0.15832791  0.16996592    -0.31200
H1800       H  0.80954533  0.19076404  0.13326709     0.13000
H1801       H  0.84133689  0.15347571  0.19764644     0.13600
C1802       C  0.64141216  0.18838230  0.15831787    -0.16000
C1803       C  0.66724470  0.17741760  0.17963904    -0.31200
H1804       H  0.63308428  0.21796733  0.15881385     0.13000
H1805       H  0.67755949  0.14861910  0.17817427     0.13600
O1806       O  0.71348407  0.30270842  0.70032600    -0.79700
O1807       O  0.78295367  0.28668073  0.83373501    -0.79800
O1808       O  0.68312611  0.27416293  0.78648711    -0.79800
O1809       O  0.82634503  0.26115104  0.71742529    -0.79700
O1810       O  0.73110317  0.30987858  0.78898107    -0.79800
O1811       O  0.78691850  0.30207975  0.70146825    -0.79800
O1812       O  0.80827674  0.29229471  0.78124500    -0.79700
O1813       O  0.67288327  0.26167422  0.71757386    -0.79800
C1814       C  0.68143631  0.29271519  0.70288667     1.09900
C1815       C  0.80630440  0.30163951  0.81413115     1.09800
C1816       C  0.69813195  0.30575349  0.79348996     1.10000
C1817       C  0.81862430  0.29099100  0.70123414     1.09800
O1818       O  0.78563736  0.22174505  0.68134686    -0.79700
O1819       O  0.72472374  0.24258303  0.82833165    -0.79800
O1820       O  0.70673337  0.18779296  0.72154897    -0.79800
O1821       O  0.83965731  0.22328725  0.77583640    -0.79700
O1822       O  0.79100344  0.21569779  0.80752292    -0.79800
O1823       O  0.71464709  0.22552152  0.67635079    -0.79800
O1824       O  0.79182494  0.19127500  0.73147809    -0.79700
O1825       O  0.71314285  0.19747036  0.79184060    -0.79800
Co1826     Co  0.75025700  0.26318875  0.69343182     1.51500
Co1827     Co  0.76089533  0.26425252  0.79466595     1.51700
Co1828     Co  0.69714659  0.23049775  0.75414489     1.51600
Co1829     Co  0.79686220  0.24007300  0.75673294     1.51500
O1830       O  0.74655219  0.25006718  0.74544471    -1.41700
C1831       C  0.79492481  0.19232519  0.69836142     1.09900
C1832       C  0.70974628  0.21142284  0.82215774     1.10000
C1833       C  0.70475837  0.19399958  0.68917053     1.09900
C1834       C  0.82434024  0.20892238  0.80219894     1.09900
C1835       C  0.87401996  0.34516128  0.87614299     0.86900
C1836       C  0.89965999  0.37012698  0.85425295    -0.53400
C1837       C  0.91970822  0.39373379  0.87421255     0.09800
C1838       C  0.91237514  0.38958841  0.91406160     0.20800
C1839       C  0.89757440  0.32378160  0.90191584    -0.54100
C1840       C  0.91760386  0.34706176  0.92181438     0.09900
C1841       C  0.85233635  0.37320721  0.89927269    -0.53600
C1842       C  0.87247242  0.39635645  0.91930849     0.10500
H1843       H  0.90118112  0.36981287  0.82579873     0.15000
H1844       H  0.92873399  0.40858105  0.93037143     0.00700
H1845       H  0.89876123  0.29303867  0.90388892     0.15300
H1846       H  0.82374420  0.37404816  0.90032488     0.15100
C1847       C  0.85642911  0.13925505  0.87354801     0.86900
C1848       C  0.83676746  0.11221367  0.89891790    -0.53400
C1849       C  0.85856173  0.09091139  0.91890824     0.09800
C1850       C  0.89811156  0.09916146  0.91189629     0.20800
C1851       C  0.88040921  0.16345315  0.89709792    -0.54100
C1852       C  0.90246878  0.14241034  0.91707839     0.09900
C1853       C  0.88196262  0.11324758  0.85207352    -0.53600
C1854       C  0.90407712  0.09261600  0.87222421     0.10500
H1855       H  0.80829170  0.10969712  0.90053258     0.15000
H1856       H  0.91590586  0.08197774  0.92825686     0.00700
H1857       H  0.87987371  0.19429102  0.89792414     0.15300
H1858       H  0.88283165  0.11172937  0.82362191     0.15100
C1859       C  0.62991889  0.35429980  0.85599952     0.86900
C1860       C  0.65210556  0.37971305  0.88020318    -0.53400
C1861       C  0.63215050  0.40310792  0.90157924     0.09800
C1862       C  0.59217795  0.39874097  0.89668273     0.20800
C1863       C  0.60473145  0.33302589  0.88120264    -0.54100
C1864       C  0.58530442  0.35620927  0.90271989     0.09900
C1865       C  0.60614403  0.38181885  0.83581611    -0.53600
C1866       C  0.58612524  0.40510421  0.85717564     0.10500
H1867       H  0.68063208  0.37844789  0.88112788     0.15000
H1868       H  0.57591999  0.41761266  0.91414330     0.00700
H1869       H  0.60224185  0.30230353  0.88195667     0.15300
H1870       H  0.60514305  0.38264166  0.80741075     0.15100
C1871       C  0.63439669  0.15071167  0.86253045     0.86900
C1872       C  0.61007132  0.12279331  0.84321526    -0.53400
C1873       C  0.58887931  0.10205495  0.86506181     0.09800
C1874       C  0.59413282  0.11102073  0.90418068     0.20800
C1875       C  0.60903319  0.17527636  0.88583855    -0.54100
C1876       C  0.58757006  0.15417567  0.90753874     0.09900
C1877       C  0.65488625  0.12596752  0.88808607    -0.53600
C1878       C  0.63398101  0.10538930  0.91004459     0.09700
H1879       H  0.60990698  0.11934998  0.81490192     0.15000
H1880       H  0.57712739  0.09383578  0.92203796     0.00700
H1881       H  0.60794415  0.20607195  0.88498165     0.15300
H1882       H  0.68344861  0.12467366  0.88868313     0.15100
N1883       N  0.49672662  0.44477116  0.84837254    -0.36200
N1884       N  0.55713711  0.00303714  0.85339569    -0.56800
N1885       N  0.50076246  0.05769889  0.85270884    -0.36200
N1886       N  0.94618884  0.99870490  0.85554992    -0.56800
C1887       C  0.52565127  0.42448692  0.83838132     0.27400
C1888       C  0.98015347  0.41364243  0.85307688     0.27400
C1889       C  0.52843014  0.08136463  0.84817201     0.27400
C1890       C  0.96683808  0.08025259  0.85483025     0.27400
C1891       C  0.57228019  0.47266335  0.84369473     0.36000
C1892       C  0.57682026  0.03460215  0.84962072     0.36000
C1893       C  0.93258980  0.46063973  0.85625470     0.36000
C1894       C  0.92360641  0.02810137  0.85260030     0.36000
C1895       C  0.51548561  0.39185862  0.82099340    -0.21500
C1896       C  0.99166858  0.37987918  0.83796452    -0.21500
C1897       C  0.51660378  0.11618738  0.83680002    -0.21500
C1898       C  0.97541295  0.11721357  0.84646830    -0.21500
C1899       C  0.60635876  0.48370066  0.83596543    -0.22600
C1900       C  0.61139105  0.02494706  0.84201505    -0.22600
C1901       C  0.89869978  0.47035215  0.84792884    -0.22600
C1902       C  0.89051699  0.01498620  0.84484085    -0.22600
C1903       C  0.56088682  0.43465884  0.84476277    -0.17900
C1904       C  0.94466551  0.42312531  0.86004116    -0.17900
C1905       C  0.93212553  0.06647057  0.85821172    -0.17900
C1906       C  0.56409406  0.07201325  0.85317783    -0.17900
H1907       H  0.53258968  0.37059680  0.80888668     0.15000
H1908       H  0.97554751  0.35671937  0.82885381     0.15000
H1909       H  0.53260224  0.14021558  0.82916508     0.15000
H1910       H  0.95731721  0.13978365  0.84010926     0.15000
H1911       H  0.62793876  0.46552420  0.82734172     0.13300
H1912       H  0.63252339  0.04403674  0.83486622     0.13300
H1913       H  0.87770794  0.45112545  0.84137775     0.13300
H1914       H  0.86780712  0.03193504  0.83847221     0.13300
H1915       H  0.49658193  0.46864709  0.86460331     0.26500
H1916       H  0.50143133  0.03128967  0.86447103     0.26500
C1917       C  0.86589770  0.35506376  0.63274384     0.86900
C1918       C  0.84847609  0.38190850  0.60661103    -0.53400
C1919       C  0.87163345  0.40277937  0.58725758     0.09800
C1920       C  0.91052293  0.39493550  0.59589008     0.20800
C1921       C  0.89193700  0.33057299  0.61002242    -0.54100
C1922       C  0.91553709  0.35180228  0.59071087     0.09900
C1923       C  0.88936794  0.38077320  0.65510794    -0.53600
C1924       C  0.91303902  0.40127600  0.63582104     0.10500
H1925       H  0.82018004  0.38451473  0.60375619     0.15000
H1926       H  0.92944845  0.41227193  0.58020237     0.00700
H1927       H  0.89150653  0.29975560  0.60910072     0.15300
H1928       H  0.88728535  0.38279769  0.68350710     0.15100
C1929       C  0.63407278  0.36369020  0.64198359     0.86900
C1930       C  0.60630936  0.38650192  0.66383845    -0.53400
C1931       C  0.58337565  0.40646464  0.64383723     0.09800
C1932       C  0.59058665  0.40181666  0.60396079     0.20800
C1933       C  0.61263088  0.33850031  0.61672445    -0.54100
C1934       C  0.58976222  0.35866157  0.59667306     0.09900
C1935       C  0.65203646  0.39321228  0.61812618    -0.53600
C1936       C  0.62944772  0.41305094  0.59819128     0.10500
H1937       H  0.60544815  0.38749147  0.69230063     0.15000
H1938       H  0.57221421  0.41832893  0.58764889     0.00700
H1939       H  0.61552773  0.30786376  0.61471807     0.15300
H1940       H  0.68031145  0.39772702  0.61657395     0.15100
N1941       N  0.56127910  0.34419090  0.50545952    -0.36200
N1942       N  0.49474056  0.34020066  0.93859204    -0.56800
N1943       N  0.95427938  0.34304157  0.50213381    -0.36200
N1944       N  0.50344018  0.33885271  0.55524171    -0.56800
C1945       C  0.56775400  0.33179591  0.96209991     0.27400
C1946       C  0.57910370  0.33681764  0.53495810     0.27400
C1947       C  0.93437234  0.32851996  0.98233755     0.27400
C1948       C  0.93395174  0.33299519  0.53007785     0.27400
C1949       C  0.52341653  0.34007308  0.91712417     0.36000
C1950       C  0.97941032  0.33137168  0.93522847     0.36000
C1951       C  0.52994926  0.33819002  0.57828159     0.36000
C1952       C  0.97843787  0.33444826  0.57626961     0.36000
C1953       C  0.59941916  0.31505201  0.97036773    -0.21500
C1954       C  0.61243317  0.32348274  0.52604602    -0.21500
C1955       C  0.90291333  0.31305068  0.99409661    -0.21500
C1956       C  0.90176413  0.32015044  0.51886809    -0.21500
C1957       C  0.51389451  0.33646181  0.88263983    -0.22600
C1958       C  0.99006488  0.32566925  0.90079141    -0.22600
C1959       C  0.51668250  0.33281874  0.61179828    -0.22600
C1960       C  0.98836858  0.32851584  0.61029301    -0.22600
C1961       C  0.55819134  0.34227146  0.92814177    -0.17900
C1962       C  0.56601875  0.34222487  0.56959067    -0.17900
C1963       C  0.94313658  0.33673502  0.56545757    -0.17900
C1964       C  0.94419591  0.33357437  0.94694218    -0.17900
H1965       H  0.62048594  0.30657904  0.95234105     0.15000
H1966       H  0.63240841  0.31402980  0.54377730     0.15000
H1967       H  0.88227361  0.30138672  0.97823992     0.15000
H1968       H  0.88031516  0.30933115  0.53502868     0.15000
H1969       H  0.53129308  0.33226321  0.86010383     0.13300
H1970       H  0.97350562  0.31889599  0.87898312     0.13300
H1971       H  0.53172535  0.32824981  0.63508818     0.13300
H1972       H  0.97116877  0.32201185  0.63240381     0.13300
H1973       H  0.53722439  0.35820042  0.50422425     0.26500
H1974       H  0.97792334  0.35766610  0.50306226     0.26500
C1975       C  0.64385246  0.15071821  0.62058407     0.86900
C1976       C  0.66615091  0.12420907  0.59657776    -0.53400
C1977       C  0.64650883  0.10033364  0.57683375     0.09800
C1978       C  0.60636171  0.10489655  0.58328643     0.20800
C1979       C  0.61867584  0.17127937  0.59585173    -0.54100
C1980       C  0.59897145  0.14721758  0.57635073     0.09900
C1981       C  0.61988342  0.12431884  0.64278946    -0.53600
C1982       C  0.60019723  0.10011508  0.62323603     0.10500
H1983       H  0.69474942  0.12427120  0.59536137     0.15000
H1984       H  0.59036783  0.08529908  0.56721972     0.00700
H1985       H  0.61667313  0.20196348  0.59379035     0.15300
H1986       H  0.61826421  0.12511582  0.67124478     0.15100
N1987       N  0.49249620  0.44135879  0.64927726    -0.36200
N1988       N  0.56200679  0.00519782  0.64684068    -0.56800
N1989       N  0.50953389  0.06326697  0.63901114    -0.36200
N1990       N  0.94470899  0.99862508  0.65039577    -0.56800
C1991       C  0.52054617  0.42122479  0.65992208     0.27400
C1992       C  0.97297601  0.41874106  0.65574708     0.27400
C1993       C  0.53838867  0.08517855  0.64266662     0.27400
C1994       C  0.96592227  0.08001631  0.65189311     0.27400
C1995       C  0.56454869  0.47176265  0.66218250     0.36000
C1996       C  0.58370765  0.03556477  0.64627641     0.36000
C1997       C  0.92611776  0.46673460  0.65536337     0.36000
C1998       C  0.92231033  0.02832600  0.65411257     0.36000
C1999       C  0.50938028  0.38748679  0.67462904    -0.21500
C2000       C  0.98360391  0.38524516  0.67094179    -0.21500
C2001       C  0.52835765  0.12145616  0.65282037    -0.21500
C2002       C  0.97456847  0.11664175  0.66151029    -0.21500
C2003       C  0.59596128  0.48473529  0.67498074    -0.22600
C2004       C  0.61716545  0.02474467  0.65532072    -0.22600
C2005       C  0.89245790  0.47721911  0.66587208    -0.22600
C2006       C  0.88903938  0.01583265  0.66323790    -0.22600
C2007       C  0.55574112  0.43330741  0.65780131    -0.17900
C2008       C  0.93776446  0.42925130  0.65081391    -0.17900
C2009       C  0.93119795  0.06659564  0.64896855    -0.17900
C2010       C  0.57354435  0.07296446  0.63816507    -0.17900
H2011       H  0.52559701  0.36622427  0.68681252     0.15000
H2012       H  0.96679860  0.36314446  0.68148577     0.15000
H2013       H  0.54549861  0.14474799  0.65947814     0.15000
H2014       H  0.95654118  0.13924207  0.66919701     0.15000
H2015       H  0.61698010  0.46780587  0.68554437     0.13300
H2016       H  0.63922005  0.04322153  0.66001257     0.13300
H2017       H  0.87146112  0.45873462  0.67478108     0.13300
H2018       H  0.86651480  0.03325387  0.67059068     0.13300
H2019       H  0.49341103  0.46590487  0.63438184     0.26500
H2020       H  0.50904883  0.03605174  0.62830868     0.26500
N2021       N  0.64601596  0.45028503  0.50816289    -0.36200
N2022       N  0.65238191  0.01147007  0.94835771    -0.56800
N2023       N  0.65686575  0.05670007  0.48978229    -0.36200
N2024       N  0.66019525  0.00245508  0.54588417    -0.56800
C2025       C  0.64711764  0.41358525  0.96414698     0.27400
C2026       C  0.64841642  0.42899962  0.53728438     0.27400
C2027       C  0.65166005  0.09215824  0.97122444     0.27400
C2028       C  0.66601285  0.07960299  0.51657018     0.27400
C2029       C  0.65297117  0.46642172  0.92248409     0.36000
C2030       C  0.65644295  0.04153938  0.92711134     0.36000
C2031       C  0.64614677  0.47934558  0.58237279     0.36000
C2032       C  0.66580455  0.03420198  0.56478609     0.36000
C2033       C  0.65586106  0.37659506  0.97207036    -0.21500
C2034       C  0.66031722  0.39300898  0.52834499    -0.21500
C2035       C  0.66554100  0.12699515  0.98027415    -0.21500
C2036       C  0.68137858  0.11228051  0.50362740    -0.21500
C2037       C  0.66383937  0.48001199  0.89021506    -0.22600
C2038       C  0.66969642  0.02999944  0.89472614    -0.22600
C2039       C  0.65184477  0.49110996  0.61631892    -0.22600
C2040       C  0.67508352  0.02525174  0.59843199    -0.22600
C2041       C  0.64609711  0.42805359  0.92986244    -0.17900
C2042       C  0.64129826  0.44144075  0.57183286    -0.17900
C2043       C  0.66150202  0.07113016  0.55230389    -0.17900
C2044       C  0.64785752  0.07905977  0.93672031    -0.17900
H2045       H  0.66414052  0.35448578  0.95377736     0.15000
H2046       H  0.66681149  0.37038050  0.54608335     0.15000
H2047       H  0.67583742  0.14836599  0.96260542     0.15000
H2048       H  0.69270700  0.13516405  0.51868180     0.15000
H2049       H  0.67142183  0.46338841  0.86728156     0.13300
H2050       H  0.67772823  0.04794030  0.87312027     0.13300
H2051       H  0.65638232  0.47326636  0.63866523     0.13300
H2052       H  0.68322516  0.04477011  0.61868614     0.13300
H2053       H  0.63453722  0.47699834  0.50675374     0.26500
H2054       H  0.64184407  0.03220334  0.49187655     0.26500
N2055       N  0.50954734  0.15696699  0.54186809    -0.36200
N2056       N  0.94087238  0.15442949  0.49700540    -0.56800
N2057       N  0.49574338  0.16232630  0.94091265    -0.36200
N2058       N  0.56316581  0.16024070  0.48683314    -0.56800
C2059       C  0.96455681  0.15935774  0.57035793     0.27400
C2060       C  0.53798453  0.16531075  0.56095479     0.27400
C2061       C  0.96260628  0.16688868  0.93169982     0.27400
C2062       C  0.52474827  0.17176305  0.92162503     0.27400
C2063       C  0.91925972  0.15373001  0.52555774     0.36000
C2064       C  0.91678039  0.16116970  0.97821565     0.36000
C2065       C  0.58437623  0.16247472  0.51467110     0.36000
C2066       C  0.56928419  0.17450712  0.96803873     0.36000
C2067       C  0.97306230  0.17473424  0.60247820    -0.21500
C2068       C  0.52735635  0.17943098  0.59343016    -0.21500
C2069       C  0.97192855  0.18269450  0.89977251    -0.21500
C2070       C  0.51474621  0.18327065  0.88876427    -0.21500
C2071       C  0.88465068  0.15723064  0.51600841    -0.22600
C2072       C  0.88221880  0.16514658  0.98954590    -0.22600
C2073       C  0.61882029  0.16753707  0.50355895    -0.22600
C2074       C  0.60291422  0.18206292  0.97898785    -0.22600
C2075       C  0.93013840  0.15056990  0.56026661    -0.17900
C2076       C  0.57321081  0.15978802  0.55000605    -0.17900
C2077       C  0.56000977  0.16955974  0.93269376    -0.17900
C2078       C  0.92777634  0.15845991  0.94278797    -0.17900
H2079       H  0.95497466  0.18365212  0.62331032     0.15000
H2080       H  0.54406472  0.18990057  0.61390254     0.15000
H2081       H  0.95430327  0.19192815  0.87964650     0.15000
H2082       H  0.53182956  0.19366869  0.86788535     0.15000
H2083       H  0.86198559  0.16092902  0.53334989     0.13300
H2084       H  0.85960980  0.16950260  0.97337631     0.13300
H2085       H  0.64111945  0.17300214  0.51988436     0.13300
H2086       H  0.62566943  0.18835367  0.96251059     0.13300
H2087       H  0.50976082  0.14209857  0.51824477     0.26500
H2088       H  0.49590580  0.14905117  0.96510461     0.26500
C2089       C  0.85837123  0.14154882  0.63281647     0.86900
C2090       C  0.88302347  0.11678331  0.65494285    -0.53400
C2091       C  0.90374898  0.09256999  0.63511298     0.09800
C2092       C  0.89767203  0.09540246  0.59540759     0.20800
C2093       C  0.88319375  0.16166065  0.60647046    -0.54100
C2094       C  0.90400943  0.13760059  0.58718782     0.09900
C2095       C  0.83713056  0.11337675  0.61063118    -0.53600
C2096       C  0.85769662  0.08912419  0.59091271     0.10500
H2097       H  0.88441282  0.11870975  0.68329248     0.15000
H2098       H  0.91450944  0.07577510  0.57926847     0.00700
H2099       H  0.88449688  0.19228473  0.60341099     0.15300
H2100       H  0.80855581  0.11299452  0.61023011     0.15100
N2101       N  0.84817315  0.04922274  0.50269293    -0.36200
N2102       N  0.85298224  0.49947303  0.55186001    -0.56800
N2103       N  0.85958870  0.44200181  0.49740013    -0.36200
N2104       N  0.85286435  0.49313465  0.95333900    -0.56800
C2105       C  0.83811298  0.06985644  0.53125613     0.27400
C2106       C  0.84087234  0.07193796  0.97988297     0.27400
C2107       C  0.85594852  0.41967747  0.52590186     0.27400
C2108       C  0.85642512  0.41399712  0.98095972     0.27400
C2109       C  0.84014218  0.02216548  0.57774213     0.36000
C2110       C  0.85210296  0.46840730  0.57232077     0.36000
C2111       C  0.84242907  0.02345393  0.93351730     0.36000
C2112       C  0.84961287  0.46120198  0.93399492     0.36000
C2113       C  0.82129034  0.10267737  0.52100119    -0.21500
C2114       C  0.82436491  0.10503871  0.99109490    -0.21500
C2115       C  0.84572465  0.38370829  0.51570674    -0.21500
C2116       C  0.84868826  0.37786259  0.99252644    -0.21500
C2117       C  0.82994292  0.01164628  0.61120517    -0.22600
C2118       C  0.84111570  0.47817629  0.60593933    -0.22600
C2119       C  0.83221638  0.01212928  0.90062973    -0.22600
C2120       C  0.83815011  0.46997395  0.90094739    -0.22600
C2121       C  0.84387482  0.05982453  0.56628911    -0.17900
C2122       C  0.84634435  0.06145466  0.94456862    -0.17900
C2123       C  0.85819342  0.42448557  0.94538081    -0.17900
C2124       C  0.86042057  0.43126725  0.56093294    -0.17900
H2125       H  0.80930643  0.12418453  0.53791156     0.15000
H2126       H  0.81278704  0.12658855  0.97485892     0.15000
H2127       H  0.83887352  0.36025701  0.53264235     0.15000
H2128       H  0.84203920  0.35359015  0.97648475     0.15000
H2129       H  0.82140849  0.03028958  0.63244860     0.13300
H2130       H  0.83510963  0.45907784  0.62725901     0.13300
H2131       H  0.82380186  0.03025577  0.87965643     0.13300
H2132       H  0.83116371  0.45022186  0.88043352     0.13300
H2133       H  0.86411242  0.02511031  0.50272395     0.26500
H2134       H  0.87034953  0.46904895  0.49701903     0.26500
C2135       C  0.83087399  0.32921120  0.82913530    -0.16000
C2136       C  0.85123342  0.31835155  0.85559237    -0.31200
H2137       H  0.83230142  0.35784259  0.81884522     0.13000
H2138       H  0.85033709  0.28878445  0.86368232     0.13600
C2139       C  0.84543196  0.18479184  0.82540581    -0.16000
C2140       C  0.83215991  0.16274713  0.85105231    -0.31200
H2141       H  0.87381335  0.18513621  0.82094000     0.13000
H2142       H  0.80382663  0.16123414  0.85543215     0.13600
C2143       C  0.67747041  0.33612849  0.81142580    -0.16000
C2144       C  0.65060776  0.32657767  0.83311720    -0.31200
H2145       H  0.68625255  0.36540585  0.80995142     0.13000
H2146       H  0.64405361  0.29665189  0.83565181     0.13600
C2147       C  0.84636753  0.31080681  0.68068288    -0.16000
C2148       C  0.83841939  0.33381729  0.65414605    -0.31200
H2149       H  0.87378716  0.30505133  0.68625990     0.13000
H2150       H  0.81084732  0.33840986  0.64832940     0.13600
C2151       C  0.68525399  0.19418128  0.84816167    -0.16000
C2152       C  0.65866260  0.17191783  0.83757698    -0.31200
H2153       H  0.68823205  0.20053556  0.87584264     0.13000
H2154       H  0.65556578  0.16696044  0.80965228     0.13600
C2155       C  0.65346718  0.31520553  0.68602265    -0.16000
C2156       C  0.66127839  0.34284521  0.66314248    -0.31200
H2157       H  0.62615367  0.30702907  0.69031203     0.13000
H2158       H  0.68880793  0.35012241  0.65869751     0.13600
C2159       C  0.81380504  0.16133570  0.67960268    -0.16000
C2160       C  0.83599951  0.17005605  0.65299438    -0.31200
H2161       H  0.81214588  0.13242671  0.68921433     0.13000
H2162       H  0.83864390  0.19974757  0.64570227     0.13600
C2163       C  0.66555923  0.17783076  0.64170891    -0.16000
C2164       C  0.68703836  0.16608564  0.66691983    -0.31200
H2165       H  0.66267821  0.20810677  0.63700291     0.13000
H2166       H  0.68850537  0.13614654  0.67345505     0.13600
O2167       O  0.72052106  0.78737816  0.16800604    -0.79700
O2168       O  0.77678042  0.81121242  0.29418688    -0.79800
O2169       O  0.67204730  0.75034482  0.27891218    -0.79800
O2170       O  0.81890957  0.77552095  0.21653182    -0.79700
O2171       O  0.70664053  0.79826178  0.28653506    -0.79800
O2172       O  0.77055500  0.81041057  0.21423388    -0.79800
O2173       O  0.82306730  0.77382354  0.28749847    -0.79700
O2174       O  0.68764078  0.77560759  0.21569841    -0.79800
C2175       C  0.69224720  0.79263867  0.18606409     1.09900
C2176       C  0.80908071  0.80490910  0.29821048     1.09800
C2177       C  0.67708089  0.78305696  0.29150815     1.10000
C2178       C  0.80334719  0.80614925  0.20818497     1.09800
O2179       O  0.77982489  0.73988612  0.17615987    -0.79700
O2180       O  0.71506235  0.72444241  0.31982936    -0.79800
O2181       O  0.66886245  0.70198356  0.22303303    -0.79800
O2182       O  0.79940699  0.69668450  0.28837523    -0.79700
O2183       O  0.78307995  0.73870569  0.32892509    -0.79800
O2184       O  0.71602188  0.71425866  0.18957718    -0.79800
O2185       O  0.79558289  0.69784341  0.21513772    -0.79700
O2186       O  0.71621208  0.68491520  0.27420566    -0.79800
Co2187     Co  0.74205296  0.76411421  0.20687221     1.51500
Co2188     Co  0.74548740  0.76828925  0.30446305     1.51700
Co2189     Co  0.70648283  0.72828998  0.24343194     1.51600
Co2190     Co  0.80604488  0.73557235  0.25181784     1.51500
O2191       O  0.75398532  0.74837953  0.25545743    -1.41700
C2192       C  0.79529137  0.70902425  0.18365284     1.09900
C2193       C  0.70961673  0.69164325  0.30647828     1.10000
C2194       C  0.68630855  0.69690561  0.19461112     1.09900
C2195       C  0.79821832  0.70768178  0.32015989     1.09900
C2196       C  0.86982418  0.84375517  0.36917846     0.86900
C2197       C  0.89447880  0.87055495  0.34878015    -0.53400
C2198       C  0.91323310  0.89390121  0.36963477     0.09800
C2199       C  0.90588108  0.88813433  0.40926450     0.20800
C2200       C  0.89384199  0.82220570  0.39442395    -0.54100
C2201       C  0.91271753  0.84551256  0.41553697     0.09900
C2202       C  0.84662616  0.86985799  0.39319893    -0.53600
C2203       C  0.86569538  0.89318929  0.41437782     0.10500
H2204       H  0.89674122  0.87121850  0.32034515     0.15000
H2205       H  0.92151071  0.90718660  0.42621824     0.00700
H2206       H  0.89627325  0.79146921  0.39506952     0.15300
H2207       H  0.81803795  0.86972443  0.39351458     0.15100
C2208       C  0.86669021  0.64404698  0.36542338     0.86900
C2209       C  0.84467913  0.61712504  0.38876560    -0.53400
C2210       C  0.86414137  0.59710955  0.41179684     0.09800
C2211       C  0.90406463  0.60577973  0.40916962     0.20800
C2212       C  0.88743344  0.66946287  0.39113514    -0.54100
C2213       C  0.90737884  0.64917774  0.41403444     0.09900
C2214       C  0.89493158  0.61855438  0.34756598    -0.53600
C2215       C  0.91457033  0.59866375  0.37040210     0.10500
H2216       H  0.81634821  0.61392040  0.38699492     0.15000
H2217       H  0.92002226  0.58912803  0.42770250     0.00700
H2218       H  0.88704453  0.70028965  0.39063326     0.15300
H2219       H  0.89899136  0.61615091  0.31934401     0.15100
C2220       C  0.64036491  0.84599423  0.36540675     0.86900
C2221       C  0.66080775  0.87343764  0.38901270    -0.53400
C2222       C  0.63961718  0.89568149  0.40984490     0.09800
C2223       C  0.60002714  0.88800229  0.40546623     0.20800
C2224       C  0.61674978  0.82277475  0.39064497    -0.54100
C2225       C  0.59554775  0.84498207  0.41178037     0.09900
C2226       C  0.61527941  0.87137683  0.34499226    -0.53600
C2227       C  0.59408310  0.89324047  0.36596503     0.10500
H2228       H  0.68933346  0.87554153  0.38895951     0.15000
H2229       H  0.58266570  0.90616497  0.42252144     0.00700
H2230       H  0.61668181  0.79195217  0.39158341     0.15300
H2231       H  0.61468352  0.87245350  0.31655511     0.15100
C2232       C  0.64261307  0.65064541  0.37310816     0.86900
C2233       C  0.62008053  0.62381211  0.35083226    -0.53400
C2234       C  0.59890868  0.60062316  0.37040157     0.09800
C2235       C  0.60239466  0.60638527  0.41034127     0.20800
C2236       C  0.61571436  0.67222546  0.39714415    -0.54100
C2237       C  0.59438495  0.64890574  0.41653513     0.09900
C2238       C  0.66313748  0.62487011  0.39779389    -0.53600
C2239       C  0.64214307  0.60171345  0.41742888     0.09700
H2240       H  0.62068899  0.62331649  0.32235517     0.15000
H2241       H  0.58527513  0.58728494  0.42627557     0.00700
H2242       H  0.61348396  0.70297408  0.39845121     0.15300
H2243       H  0.69161468  0.62516079  0.39979692     0.15100
N2244       N  0.50581407  0.93289870  0.35698893    -0.36200
N2245       N  0.56511222  0.50372874  0.35545849    -0.56800
N2246       N  0.51086435  0.56052254  0.35362271    -0.36200
N2247       N  0.95552179  0.50351500  0.35577023    -0.56800
C2248       C  0.53389115  0.91076734  0.34889324     0.27400
C2249       C  0.97336867  0.91333078  0.34968876     0.27400
C2250       C  0.53944412  0.58281125  0.34899170     0.27400
C2251       C  0.97752351  0.58463395  0.35488324     0.27400
C2252       C  0.58047545  0.95807412  0.34492526     0.36000
C2253       C  0.58594291  0.53443301  0.35206331     0.36000
C2254       C  0.92583422  0.95963577  0.34933613     0.36000
C2255       C  0.93355630  0.53348037  0.35335779     0.36000
C2256       C  0.52317064  0.87615306  0.33580876    -0.21500
C2257       C  0.98496496  0.88008282  0.33370426    -0.21500
C2258       C  0.52932043  0.61768760  0.33621134    -0.21500
C2259       C  0.98649160  0.62070315  0.34392757    -0.21500
C2260       C  0.61440746  0.96751206  0.33498237    -0.22600
C2261       C  0.62031438  0.52354875  0.34514290    -0.22600
C2262       C  0.89248186  0.96859241  0.33853322    -0.22600
C2263       C  0.90051178  0.52156793  0.34407292    -0.22600
C2264       C  0.56894451  0.92132655  0.35242765    -0.17900
C2265       C  0.93803670  0.92293433  0.35588113    -0.17900
C2266       C  0.94278909  0.57149957  0.35926959    -0.17900
C2267       C  0.57438206  0.57214870  0.35556152    -0.17900
H2268       H  0.53978753  0.85347732  0.32543948     0.15000
H2269       H  0.96893199  0.85746642  0.32337671     0.15000
H2270       H  0.54638031  0.64084708  0.32849121     0.15000
H2271       H  0.96869156  0.64304359  0.33629517     0.15000
H2272       H  0.63589203  0.94819977  0.32881618     0.13300
H2273       H  0.64220565  0.54189692  0.33857488     0.13300
H2274       H  0.87195316  0.94897780  0.33148197     0.13300
H2275       H  0.87854851  0.53934230  0.33716365     0.13300
H2276       H  0.50610961  0.95889473  0.37017094     0.26500
H2277       H  0.51014933  0.53459656  0.36636716     0.26500
C2278       C  0.87072079  0.84772829  0.14137204     0.86900
C2279       C  0.84904295  0.87338453  0.11728720    -0.53400
C2280       C  0.86923892  0.89620875  0.09625683     0.09800
C2281       C  0.90926091  0.89107149  0.10139737     0.20800
C2282       C  0.89616069  0.82559729  0.11619437    -0.54100
C2283       C  0.91636265  0.84841621  0.09520306     0.09900
C2284       C  0.89455465  0.87476270  0.16194214    -0.53600
C2285       C  0.91502804  0.89727401  0.14100162     0.10500
H2286       H  0.82047024  0.87334441  0.11677749     0.15000
H2287       H  0.92573859  0.90974301  0.08438537     0.00700
H2288       H  0.89816640  0.79482256  0.11517869     0.15300
H2289       H  0.89526490  0.87589114  0.19037643     0.15100
C2290       C  0.64216416  0.87107373  0.13638138     0.86900
C2291       C  0.61511638  0.89388592  0.15977349    -0.53400
C2292       C  0.59116363  0.91429262  0.14080568     0.09800
C2293       C  0.59690893  0.90961689  0.10077541     0.20800
C2294       C  0.61966277  0.84632487  0.11212060    -0.54100
C2295       C  0.59592819  0.86648820  0.09356436     0.09900
C2296       C  0.65902754  0.90089131  0.11220378    -0.53600
C2297       C  0.63553099  0.92088858  0.09354114     0.10500
H2298       H  0.61551226  0.89455119  0.18820533     0.15000
H2299       H  0.57786534  0.92603375  0.08514620     0.00700
H2300       H  0.62231255  0.81567349  0.10978636     0.15300
H2301       H  0.68725229  0.90515582  0.10914508     0.15100
N2302       N  0.56309757  0.84851874  0.00515377    -0.36200
N2303       N  0.50614108  0.82804125  0.45014206    -0.56800
N2304       N  0.95279678  0.84002554  0.00562264    -0.36200
N2305       N  0.50766756  0.84399229  0.05861919    -0.56800
C2306       C  0.57956096  0.82811735  0.47314074     0.27400
C2307       C  0.58220979  0.84197527  0.03385844     0.27400
C2308       C  0.92977289  0.82635432  0.47577455     0.27400
C2309       C  0.93366237  0.82941103  0.03416440     0.27400
C2310       C  0.53450358  0.82502789  0.42824287     0.36000
C2311       C  0.97495077  0.82952839  0.42855823     0.36000
C2312       C  0.53559790  0.84503660  0.07979416     0.36000
C2313       C  0.97898408  0.83246846  0.07894888     0.36000
C2314       C  0.61142157  0.81397133  0.48394834    -0.21500
C2315       C  0.61514573  0.82820826  0.02390338    -0.21500
C2316       C  0.89843923  0.81024073  0.48710243    -0.21500
C2317       C  0.90238046  0.81328999  0.02401750    -0.21500
C2318       C  0.52418675  0.81720124  0.39456940    -0.22600
C2319       C  0.98541778  0.82381998  0.39405784    -0.22600
C2320       C  0.52477596  0.84062682  0.11424887    -0.22600
C2321       C  0.98987334  0.82722641  0.11274820    -0.22600
C2322       C  0.56954014  0.83028951  0.43810699    -0.17900
C2323       C  0.57085310  0.84938422  0.06860353    -0.17900
C2324       C  0.94354699  0.83465969  0.06907751    -0.17900
C2325       C  0.93967814  0.83213470  0.44046415    -0.17900
H2326       H  0.63205350  0.80124321  0.46762635     0.15000
H2327       H  0.63597805  0.81944478  0.04094396     0.15000
H2328       H  0.87813642  0.79843407  0.47090923     0.15000
H2329       H  0.88219292  0.80106710  0.04090384     0.15000
H2330       H  0.54112075  0.81109801  0.37202420     0.13300
H2331       H  0.96862346  0.81779226  0.37225928     0.13300
H2332       H  0.54149456  0.83733969  0.13655458     0.13300
H2333       H  0.97333323  0.82115501  0.13544371     0.13300
H2334       H  0.53907227  0.86275658  0.00477679     0.26500
H2335       H  0.97551053  0.85641715  0.00563023     0.26500
C2336       C  0.62762836  0.62478714  0.14594175     0.86900
C2337       C  0.65016217  0.60099206  0.11932012    -0.53400
C2338       C  0.63046821  0.58136532  0.09563093     0.09800
C2339       C  0.59036423  0.58716423  0.10127920     0.20800
C2340       C  0.60413435  0.65030440  0.12334122    -0.54100
C2341       C  0.58448003  0.63048373  0.09996577     0.09900
C2342       C  0.60213623  0.59613282  0.16304389    -0.53600
C2343       C  0.58265908  0.57647513  0.13981772     0.10500
H2344       H  0.67871243  0.59955248  0.11942621     0.15000
H2345       H  0.57428840  0.57101664  0.08233893     0.00700
H2346       H  0.60292195  0.68102953  0.12585418     0.15300
H2347       H  0.59945762  0.59182753  0.19115183     0.15100
N2348       N  0.49932000  0.94897381  0.15058875    -0.36200
N2349       N  0.54546798  0.47956735  0.14898923    -0.56800
N2350       N  0.49201399  0.53888110  0.14828482    -0.36200
N2351       N  0.95062927  0.49998082  0.15308030    -0.56800
C2352       C  0.52847167  0.92950522  0.15993638     0.27400
C2353       C  0.97556665  0.91672157  0.15864892     0.27400
C2354       C  0.52069166  0.55970720  0.15552380     0.27400
C2355       C  0.97262979  0.58008461  0.14622287     0.27400
C2356       C  0.57215929  0.98063809  0.15738325     0.36000
C2357       C  0.56619641  0.50986940  0.15461127     0.36000
C2358       C  0.92773405  0.96357552  0.15894730     0.36000
C2359       C  0.92855409  0.53012326  0.15452270     0.36000
C2360       C  0.51860147  0.89621273  0.17628871    -0.21500
C2361       C  0.98716572  0.88357060  0.17375380    -0.21500
C2362       C  0.51045717  0.59431216  0.16984291    -0.21500
C2363       C  0.98169155  0.61690491  0.15453686    -0.21500
C2364       C  0.60471021  0.99448895  0.16599003    -0.22600
C2365       C  0.59913345  0.49815299  0.16467325    -0.22600
C2366       C  0.89370544  0.97328135  0.16879244    -0.22600
C2367       C  0.89566894  0.51920268  0.16667131    -0.22600
C2368       C  0.56363993  0.94172234  0.15524924    -0.17900
C2369       C  0.93998287  0.92631042  0.15420591    -0.17900
C2370       C  0.93777918  0.56724025  0.14476260    -0.17900
C2371       C  0.55581798  0.54787336  0.15034617    -0.17900
H2372       H  0.53582366  0.87555681  0.18798704     0.15000
H2373       H  0.97103299  0.86114366  0.18472624     0.15000
H2374       H  0.52744716  0.61625723  0.17983731     0.15000
H2375       H  0.96394529  0.63995918  0.16160812     0.15000
H2376       H  0.62710042  0.97813260  0.17436847     0.13300
H2377       H  0.62041817  0.51595792  0.17329367     0.13300
H2378       H  0.87286196  0.95421560  0.17688661     0.13300
H2379       H  0.87351283  0.53746338  0.17320125     0.13300
H2380       H  0.49872683  0.97319785  0.13519661     0.26500
H2381       H  0.49213309  0.51353491  0.13418815     0.26500
N2382       N  0.64664585  0.95583054  0.00247436    -0.36200
N2383       N  0.65764173  0.50685807  0.45511070    -0.56800
N2384       N  0.64350087  0.54977550  0.00342029    -0.36200
N2385       N  0.64312825  0.48733726  0.05193815    -0.56800
C2386       C  0.65517062  0.91628397  0.46971714     0.27400
C2387       C  0.65084261  0.93516353  0.03164371     0.27400
C2388       C  0.65780975  0.58682452  0.47885253     0.27400
C2389       C  0.65064490  0.56862786  0.03344597     0.27400
C2390       C  0.66092558  0.96163556  0.42138880     0.36000
C2391       C  0.66263609  0.53700311  0.43404720     0.36000
C2392       C  0.65213701  0.98648017  0.07583483     0.36000
C2393       C  0.64748949  0.51596957  0.07522091     0.36000
C2394       C  0.66377523  0.88074574  0.48196069    -0.21500
C2395       C  0.66195422  0.89889417  0.02261765    -0.21500
C2396       C  0.67170426  0.62109083  0.48957816    -0.21500
C2397       C  0.66571057  0.60326871  0.02560629    -0.21500
C2398       C  0.67267711  0.96946383  0.38772332    -0.22600
C2399       C  0.67550123  0.52539349  0.40158948    -0.22600
C2400       C  0.66151527  0.99865653  0.10877501    -0.22600
C2401       C  0.65559460  0.50163273  0.10752843    -0.22600
C2402       C  0.65277034  0.92529138  0.43416177    -0.17900
C2403       C  0.64622878  0.94848717  0.06623491    -0.17900
C2404       C  0.64475195  0.55491029  0.06766308    -0.17900
C2405       C  0.65555000  0.57477036  0.44388623    -0.17900
H2406       H  0.67060734  0.85585762  0.46640000     0.15000
H2407       H  0.66956530  0.87661876  0.04027700     0.15000
H2408       H  0.68344009  0.64272759  0.47308802     0.15000
H2409       H  0.67577430  0.62383747  0.04401689     0.15000
H2410       H  0.68021263  0.94916141  0.36746985     0.13300
H2411       H  0.68423059  0.54334364  0.38024593     0.13300
H2412       H  0.66870468  0.98111615  0.13060209     0.13300
H2413       H  0.66318127  0.51767418  0.13039169     0.13300
H2414       H  0.63523331  0.98258375  0.00155452     0.26500
H2415       H  0.62916055  0.52483088  0.00134192     0.26500
N2416       N  0.49553454  0.64571192  0.06551492    -0.36200
N2417       N  0.94192089  0.66381796  0.00069293    -0.56800
N2418       N  0.50093631  0.65995825  0.44703538    -0.36200
N2419       N  0.55059774  0.65478618  0.01202163    -0.56800
C2420       C  0.96657131  0.66897348  0.07338482     0.27400
C2421       C  0.52362632  0.65167623  0.08589669     0.27400
C2422       C  0.96770466  0.67110724  0.43042341     0.27400
C2423       C  0.53120644  0.66630993  0.42860162     0.27400
C2424       C  0.92041822  0.66509002  0.02944297     0.36000
C2425       C  0.92011588  0.66931384  0.47559745     0.36000
C2426       C  0.57108436  0.65466480  0.04047644     0.36000
C2427       C  0.57328087  0.66718070  0.47696052     0.36000
C2428       C  0.97684938  0.68482130  0.10473808    -0.21500
C2429       C  0.51218040  0.66151720  0.11942291    -0.21500
C2430       C  0.97920299  0.68472182  0.39829170    -0.21500
C2431       C  0.52345238  0.67740212  0.39500105    -0.21500
C2432       C  0.88588444  0.66923362  0.01982533    -0.22600
C2433       C  0.88534096  0.67361045  0.48611091    -0.22600
C2434       C  0.60565355  0.66147925  0.03066661    -0.22600
C2435       C  0.60650830  0.67343575  0.48946528    -0.22600
C2436       C  0.93146710  0.66236506  0.06428114    -0.17900
C2437       C  0.55926069  0.64777161  0.07514230    -0.17900
C2438       C  0.56560911  0.66223269  0.44126430    -0.17900
C2439       C  0.93198370  0.66567537  0.44038934    -0.17900
H2440       H  0.95987609  0.69576464  0.12570124     0.15000
H2441       H  0.52840364  0.66922017  0.14126667     0.15000
H2442       H  0.96297093  0.69440865  0.37719920     0.15000
H2443       H  0.54199560  0.68599346  0.37464081     0.15000
H2444       H  0.86329468  0.67378079  0.03715469     0.13300
H2445       H  0.86316297  0.67787952  0.46935621     0.13300
H2446       H  0.62751229  0.66551990  0.04790781     0.13300
H2447       H  0.63018547  0.67865864  0.47403288     0.13300
H2448       H  0.49643957  0.63401415  0.04044582     0.26500
H2449       H  0.49888857  0.64750135  0.47155781     0.26500
C2450       C  0.86319973  0.64166765  0.13885784     0.86900
C2451       C  0.88944409  0.61496236  0.15668558    -0.53400
C2452       C  0.90997296  0.59440541  0.13376918     0.09800
C2453       C  0.90238237  0.60254952  0.09500593     0.20800
C2454       C  0.88614775  0.66656519  0.11423989    -0.54100
C2455       C  0.90676357  0.64591964  0.09115220     0.09900
C2456       C  0.84199272  0.61576779  0.11456010    -0.53600
C2457       C  0.86253171  0.59527746  0.09152135     0.10500
H2458       H  0.89177666  0.61257785  0.18490804     0.15000
H2459       H  0.91911075  0.58565846  0.07627537     0.00700
H2460       H  0.88611089  0.69740411  0.11504541     0.15300
H2461       H  0.81351571  0.61314028  0.11604598     0.15100
N2462       N  0.85339221  0.55358117  0.00424166    -0.36200
N2463       N  0.84838958  0.99172197  0.06059318    -0.56800
N2464       N  0.85472478  0.93431624  0.00644407    -0.36200
N2465       N  0.84684449  0.99013603  0.45008572    -0.56800
C2466       C  0.84399463  0.57529481  0.03217940     0.27400
C2467       C  0.84332357  0.57920034  0.47173354     0.27400
C2468       C  0.85213422  0.91168198  0.03487883     0.27400
C2469       C  0.84750866  0.90967900  0.47612015     0.27400
C2470       C  0.84553910  0.52837685  0.07948600     0.36000
C2471       C  0.84646580  0.96077070  0.08120252     0.36000
C2472       C  0.84458237  0.53063871  0.42532187     0.36000
C2473       C  0.84427324  0.95871400  0.42971347     0.36000
C2474       C  0.82831835  0.60844350  0.02115513    -0.21500
C2475       C  0.82753934  0.61281696  0.48264067    -0.21500
C2476       C  0.84495316  0.87499817  0.02426346    -0.21500
C2477       C  0.84139356  0.87289382  0.48698877    -0.21500
C2478       C  0.83711461  0.51863607  0.11359431    -0.22600
C2479       C  0.83591976  0.97116035  0.11481047    -0.22600
C2480       C  0.83555663  0.51954129  0.39195909    -0.22600
C2481       C  0.83591309  0.96895823  0.39607915    -0.22600
C2482       C  0.84892689  0.56578625  0.06733819    -0.17900
C2483       C  0.84921535  0.56844649  0.43659469    -0.17900
C2484       C  0.85045524  0.92100986  0.44063492    -0.17900
C2485       C  0.85487246  0.92345443  0.07018729    -0.17900
H2486       H  0.81664962  0.63056870  0.03756652     0.15000
H2487       H  0.81667199  0.63458870  0.46615498     0.15000
H2488       H  0.83948162  0.85098819  0.04100610     0.15000
H2489       H  0.83624565  0.84857250  0.47042486     0.15000
H2490       H  0.82903935  0.53765010  0.13471267     0.13300
H2491       H  0.82975590  0.95240707  0.13637876     0.13300
H2492       H  0.82812021  0.53777555  0.37067072     0.13300
H2493       H  0.82963576  0.95002418  0.37470532     0.13300
H2494       H  0.86876923  0.52887536  0.00489372     0.26500
H2495       H  0.86331280  0.96221124  0.00634729     0.26500
C2496       C  0.82895287  0.83124555  0.32017777    -0.16000
C2497       C  0.85003234  0.81783254  0.34506820    -0.31200
H2498       H  0.82374284  0.86154260  0.31851478     0.13000
H2499       H  0.85347190  0.78730527  0.34769928     0.13600
C2500       C  0.81736300  0.68668889  0.34718090    -0.16000
C2501       C  0.84520176  0.66464862  0.33860755    -0.31200
H2502       H  0.81039015  0.69168210  0.37463440     0.13000
H2503       H  0.85254050  0.66096723  0.31105225     0.13600
C2504       C  0.65185226  0.80053378  0.31628251    -0.16000
C2505       C  0.66407154  0.82322728  0.34161944    -0.31200
H2506       H  0.62390296  0.79463542  0.31441257     0.13000
H2507       H  0.69230735  0.82734122  0.34385249     0.13600
C2508       C  0.82316320  0.83415240  0.18697520    -0.16000
C2509       C  0.84900530  0.82192797  0.16465938    -0.31200
H2510       H  0.81542782  0.86388856  0.18777667     0.13000
H2511       H  0.85463098  0.79164869  0.16282206     0.13600
C2512       C  0.68982887  0.66387446  0.32769132    -0.16000
C2513       C  0.66605079  0.67653524  0.35194720    -0.31200
H2514       H  0.69202936  0.63376703  0.32151679     0.13000
H2515       H  0.66274477  0.70694249  0.35619754     0.13600
C2516       C  0.66382117  0.81791970  0.17401092    -0.16000
C2517       C  0.67057806  0.84838500  0.15424352    -0.31200
H2518       H  0.63675588  0.81119222  0.18136337     0.13000
H2519       H  0.69797898  0.85527936  0.14841147     0.13600
C2520       C  0.81544485  0.68787527  0.15632441    -0.16000
C2521       C  0.84069577  0.66322482  0.16527734    -0.31200
H2522       H  0.81116399  0.69403140  0.12888699     0.13000
H2523       H  0.84537572  0.65834349  0.19288956     0.13600
C2524       C  0.64735591  0.64639483  0.17372773    -0.16000
C2525       C  0.67262188  0.67191329  0.16668336    -0.31200
H2526       H  0.63929713  0.64217402  0.20096656     0.13000
H2527       H  0.68224094  0.67564206  0.13988333     0.13600
O2528       O  0.72168154  0.78642949  0.67612528    -0.79700
O2529       O  0.78038912  0.80861080  0.80069216    -0.79800
O2530       O  0.66968744  0.76055129  0.79243462    -0.79800
O2531       O  0.82111505  0.77526747  0.72136919    -0.79700
O2532       O  0.71074239  0.80189222  0.79676935    -0.79800
O2533       O  0.77260688  0.80982916  0.72054155    -0.79800
O2534       O  0.82617560  0.77121897  0.79310591    -0.79700
O2535       O  0.68936906  0.78590011  0.72604210    -0.79800
C2536       C  0.69548321  0.79830097  0.69467497     1.09900
C2537       C  0.81272744  0.80260946  0.80351510     1.09800
C2538       C  0.67943675  0.79213945  0.80322750     1.10000
C2539       C  0.80522227  0.80583522  0.71316095     1.09800
O2540       O  0.78099267  0.74002978  0.68151828    -0.79700
O2541       O  0.71450557  0.72436878  0.82758016    -0.79800
O2542       O  0.67124914  0.71358768  0.72642490    -0.79800
O2543       O  0.80122572  0.69435585  0.79177977    -0.79700
O2544       O  0.78490579  0.73443648  0.83397132    -0.79800
O2545       O  0.72047834  0.71379966  0.69769676    -0.79800
O2546       O  0.79752077  0.69720961  0.71925062    -0.79700
O2547       O  0.70669522  0.69072821  0.77959407    -0.79800
Co2548     Co  0.74422607  0.76314995  0.71368212     1.51500
Co2549     Co  0.74812759  0.76665956  0.81123161     1.51700
Co2550     Co  0.70239720  0.73994764  0.75692735     1.51600
Co2551     Co  0.80815995  0.73431437  0.75649654     1.51500
O2552       O  0.75554648  0.74591220  0.76112767    -1.41700
C2553       C  0.79588628  0.70865373  0.68793237     1.09900
C2554       C  0.70424400  0.69381801  0.81245918     1.10000
C2555       C  0.68867374  0.70303898  0.70036852     1.09900
C2556       C  0.79935107  0.70347064  0.82396832     1.09900
C2557       C  0.87374531  0.84782411  0.87105055     0.86900
C2558       C  0.89762603  0.87532195  0.85033595    -0.53400
C2559       C  0.91542034  0.89993204  0.87100238     0.09800
C2560       C  0.90792684  0.89446964  0.91067499     0.20800
C2561       C  0.89815090  0.82787987  0.89677475    -0.54100
C2562       C  0.91593373  0.85224647  0.91762892     0.09900
C2563       C  0.84947656  0.87345734  0.89454783    -0.53600
C2564       C  0.86761564  0.89795578  0.91549880     0.10500
H2565       H  0.90004565  0.87548226  0.82190953     0.15000
H2566       H  0.92281077  0.91431332  0.92755092     0.00700
H2567       H  0.90169187  0.79728447  0.89796106     0.15300
H2568       H  0.82093837  0.87176410  0.89508838     0.15100
C2569       C  0.86432655  0.63381093  0.86622886     0.86900
C2570       C  0.84324531  0.60786797  0.89141456    -0.53400
C2571       C  0.86386239  0.58839477  0.91397368     0.09800
C2572       C  0.90362290  0.59672882  0.90908290     0.20800
C2573       C  0.88636785  0.65981195  0.89002866    -0.54100
C2574       C  0.90710499  0.64027532  0.91250408     0.09900
C2575       C  0.89149994  0.60739976  0.84770228    -0.53600
C2576       C  0.91213039  0.58801306  0.87012063     0.10500
H2577       H  0.81479595  0.60499366  0.89123664     0.15000
H2578       H  0.92045178  0.58075499  0.92734808     0.00700
H2579       H  0.88592245  0.69062062  0.88888469     0.15300
H2580       H  0.89423125  0.60421250  0.81941753     0.15100
C2581       C  0.64532026  0.86394199  0.86983612     0.86900
C2582       C  0.66465391  0.89268204  0.89298673    -0.53400
C2583       C  0.64241237  0.91387494  0.91378632     0.09800
C2584       C  0.60319472  0.90413671  0.90945697     0.20800
C2585       C  0.62289445  0.83984560  0.89545635    -0.54100
C2586       C  0.60073835  0.86104351  0.91632597     0.09900
C2587       C  0.61902598  0.88756044  0.84911494    -0.53600
C2588       C  0.59694969  0.90864402  0.86987682     0.10500
H2589       H  0.69308260  0.89583320  0.89314238     0.15000
H2590       H  0.58503995  0.92151341  0.92638162     0.00700
H2591       H  0.62399610  0.80903514  0.89654158     0.15300
H2592       H  0.61828444  0.88803775  0.82065944     0.15100
C2593       C  0.63590044  0.64702521  0.87606370     0.86900
C2594       C  0.61147290  0.62243024  0.85304171    -0.53400
C2595       C  0.59007752  0.59837323  0.87199373     0.09800
C2596       C  0.59556762  0.60123650  0.91193418     0.20800
C2597       C  0.61052767  0.66742091  0.90249821    -0.54100
C2598       C  0.58931297  0.64344617  0.92122829     0.09900
C2599       C  0.65643228  0.61848192  0.89821761    -0.53600
C2600       C  0.63539341  0.59451198  0.91707926     0.09700
H2601       H  0.61096717  0.62417518  0.82466037     0.15000
H2602       H  0.57851221  0.58166922  0.92742860     0.00700
H2603       H  0.60946534  0.69803624  0.90615418     0.15300
H2604       H  0.68498375  0.61748147  0.89907408     0.15100
N2605       N  0.50675683  0.94159344  0.85743324    -0.36200
N2606       N  0.55167382  0.50348233  0.84973975    -0.56800
N2607       N  0.49877394  0.56149431  0.85825716    -0.36200
N2608       N  0.95273129  0.49209697  0.85855125    -0.56800
C2609       C  0.53666057  0.92224362  0.84982791     0.27400
C2610       C  0.97495252  0.92097504  0.84995446     0.27400
C2611       C  0.52774878  0.58372313  0.85478753     0.27400
C2612       C  0.97466007  0.57382336  0.85285117     0.27400
C2613       C  0.57983388  0.97353428  0.85147598     0.36000
C2614       C  0.57337872  0.53387878  0.84906380     0.36000
C2615       C  0.92664073  0.96694929  0.85317869     0.36000
C2616       C  0.93078836  0.52196062  0.85483879     0.36000
C2617       C  0.52896663  0.88727391  0.83526169    -0.21500
C2618       C  0.98675135  0.88806714  0.83344990    -0.21500
C2619       C  0.51747924  0.62038285  0.84737490    -0.21500
C2620       C  0.98306282  0.61014774  0.84211721    -0.21500
C2621       C  0.61330505  0.98600518  0.84322093    -0.22600
C2622       C  0.60702223  0.52265449  0.83925602    -0.22600
C2623       C  0.89244107  0.97598127  0.84529607    -0.22600
C2624       C  0.89754425  0.50936287  0.84699329    -0.22600
C2625       C  0.57058789  0.93539409  0.85611731    -0.17900
C2626       C  0.93951456  0.92989423  0.85721157    -0.17900
C2627       C  0.94005482  0.56046563  0.85861274    -0.17900
C2628       C  0.56322770  0.57163895  0.85702823    -0.17900
H2629       H  0.54751350  0.86616311  0.82530005     0.15000
H2630       H  0.97085388  0.86547983  0.82286634     0.15000
H2631       H  0.53455055  0.64409073  0.84137505     0.15000
H2632       H  0.96484968  0.63247281  0.83541550     0.15000
H2633       H  0.63613109  0.96858368  0.83699312     0.13300
H2634       H  0.62919661  0.54093558  0.83363238     0.13300
H2635       H  0.87167848  0.95634791  0.83903329     0.13300
H2636       H  0.87531875  0.52663651  0.83981195     0.13300
H2637       H  0.50470241  0.96684203  0.87172606     0.26500
H2638       H  0.49816205  0.53370181  0.86705977     0.26500
C2639       C  0.86866719  0.84910611  0.64174717     0.86900
C2640       C  0.84561063  0.87394921  0.61789224    -0.53400
C2641       C  0.86470016  0.89656205  0.59540018     0.09800
C2642       C  0.90493348  0.89214850  0.59915565     0.20800
C2643       C  0.89338257  0.82688963  0.61589491    -0.54100
C2644       C  0.91220569  0.84944152  0.59345044     0.09900
C2645       C  0.89303723  0.87717644  0.66057292    -0.53600
C2646       C  0.91222681  0.89965457  0.63835328     0.10500
H2647       H  0.81703250  0.87336392  0.61850333     0.15000
H2648       H  0.92052766  0.91056126  0.58110435     0.00700
H2649       H  0.89615409  0.79616861  0.61567513     0.15300
H2650       H  0.89494461  0.87907001  0.68888918     0.15100
C2651       C  0.64320919  0.85968560  0.63102145     0.86900
C2652       C  0.61845496  0.88488086  0.65474497    -0.53400
C2653       C  0.59654249  0.90762197  0.63605874     0.09800
C2654       C  0.60166528  0.90309049  0.59598006     0.20800
C2655       C  0.61845162  0.83770528  0.60694297    -0.54100
C2656       C  0.59675765  0.86038625  0.58849021     0.09900
C2657       C  0.66281148  0.88767397  0.60711641    -0.53600
C2658       C  0.64117580  0.91028899  0.58869582     0.10500
H2659       H  0.61834663  0.88572504  0.68313628     0.15000
H2660       H  0.58408646  0.92161502  0.58063508     0.00700
H2661       H  0.61807829  0.80692043  0.60472217     0.15300
H2662       H  0.69130342  0.88840230  0.60378933     0.15100
N2663       N  0.56014441  0.84051637  0.50106128    -0.36200
N2664       N  0.51133026  0.83891537  0.95227522    -0.56800
N2665       N  0.94907253  0.83619302  0.50366363    -0.36200
N2666       N  0.50648157  0.84380709  0.55575682    -0.56800
C2667       C  0.58406356  0.84038782  0.97696309     0.27400
C2668       C  0.57995021  0.83552471  0.52958781     0.27400
C2669       C  0.93336559  0.83196468  0.97738358     0.27400
C2670       C  0.92969029  0.82777333  0.53273954     0.27400
C2671       C  0.54020598  0.83860763  0.93094626     0.36000
C2672       C  0.97819713  0.83773875  0.93020658     0.36000
C2673       C  0.53493553  0.84346553  0.57620064     0.36000
C2674       C  0.97477682  0.83473038  0.57750075     0.36000
C2675       C  0.61632069  0.82723085  0.98771900    -0.21500
C2676       C  0.61160552  0.81847999  0.51987622    -0.21500
C2677       C  0.90222336  0.81483961  0.98789615    -0.21500
C2678       C  0.89841653  0.81108668  0.52330378    -0.21500
C2679       C  0.53109726  0.83144095  0.89679074    -0.22600
C2680       C  0.98826599  0.83336240  0.89544843    -0.22600
C2681       C  0.52498989  0.83838226  0.61079702    -0.22600
C2682       C  0.98545514  0.83181478  0.61162306    -0.22600
C2683       C  0.57468978  0.84492290  0.94187951    -0.17900
C2684       C  0.56993511  0.84590718  0.56404172    -0.17900
C2685       C  0.93942539  0.83540631  0.56744239    -0.17900
C2686       C  0.94313664  0.83988935  0.94246996    -0.17900
H2687       H  0.63813503  0.81746837  0.97118310     0.15000
H2688       H  0.63235993  0.80958979  0.53694011     0.15000
H2689       H  0.88195032  0.80388153  0.97118885     0.15000
H2690       H  0.87809491  0.80006789  0.54074996     0.15000
H2691       H  0.54882484  0.82688942  0.87454970     0.13300
H2692       H  0.97125213  0.82819896  0.87365530     0.13300
H2693       H  0.54219740  0.83364014  0.63249479     0.13300
H2694       H  0.96889589  0.82656238  0.63448097     0.13300
H2695       H  0.53688792  0.85612690  0.50007177     0.26500
H2696       H  0.97184193  0.85247088  0.50278526     0.26500
C2697       C  0.62019248  0.65105984  0.64286587     0.86900
C2698       C  0.64462592  0.62827088  0.61712770    -0.53400
C2699       C  0.62700071  0.60610081  0.59423274     0.09800
C2700       C  0.58669609  0.60847096  0.59884931     0.20800
C2701       C  0.59515792  0.67345509  0.61904651    -0.54100
C2702       C  0.57760515  0.65105813  0.59586238     0.09900
C2703       C  0.59664261  0.62095566  0.66062326    -0.53600
C2704       C  0.57931872  0.59847324  0.63759999     0.10500
H2705       H  0.67308232  0.62792702  0.61693723     0.15000
H2706       H  0.57241342  0.59011899  0.58012966     0.00700
H2707       H  0.59213743  0.70413481  0.62000671     0.15300
H2708       H  0.59327120  0.61828123  0.68885625     0.15100
N2709       N  0.50756316  0.94695709  0.64819879    -0.36200
N2710       N  0.54372179  0.50127882  0.65371126    -0.56800
N2711       N  0.49003594  0.55735338  0.63906736    -0.36200
N2712       N  0.94584286  0.49758295  0.64861289    -0.56800
C2713       C  0.53592521  0.92630278  0.65738279     0.27400
C2714       C  0.97260141  0.92060277  0.65622682     0.27400
C2715       C  0.51720896  0.58038393  0.64636583     0.27400
C2716       C  0.96763205  0.57789220  0.64764416     0.27400
C2717       C  0.58255443  0.97461032  0.65266928     0.36000
C2718       C  0.56316821  0.53289392  0.65794562     0.36000
C2719       C  0.92478930  0.96716784  0.65388275     0.36000
C2720       C  0.92380245  0.52757911  0.65168821     0.36000
C2721       C  0.52490620  0.89323189  0.67345885    -0.21500
C2722       C  0.98374106  0.88824858  0.67305400    -0.21500
C2723       C  0.50500469  0.61661614  0.65371107    -0.21500
C2724       C  0.97614734  0.61395893  0.65892789    -0.21500
C2725       C  0.61649495  0.98591039  0.65917762    -0.22600
C2726       C  0.59499191  0.52373954  0.67250431    -0.22600
C2727       C  0.89062912  0.97685161  0.66311938    -0.22600
C2728       C  0.89104867  0.51612109  0.66375738    -0.22600
C2729       C  0.57141125  0.93653203  0.65137142    -0.17900
C2730       C  0.93720422  0.92975507  0.65001672    -0.17900
C2731       C  0.93313145  0.56505432  0.64370275    -0.17900
C2732       C  0.55267308  0.56962468  0.64807198    -0.17900
H2733       H  0.54142628  0.87156559  0.68462949     0.15000
H2734       H  0.96735367  0.86616547  0.68424866     0.15000
H2735       H  0.52029698  0.64052357  0.66258563     0.15000
H2736       H  0.95807636  0.63652121  0.66657571     0.15000
H2737       H  0.63804457  0.96797908  0.66703777     0.13300
H2738       H  0.61506404  0.54319916  0.68098693     0.13300
H2739       H  0.86969116  0.95768946  0.67068554     0.13300
H2740       H  0.86885015  0.53401588  0.67109984     0.13300
H2741       H  0.50815961  0.97112726  0.63273096     0.26500
H2742       H  0.49193478  0.52970830  0.62956794     0.26500
N2743       N  0.65105464  0.94088769  0.49679118    -0.36200
N2744       N  0.64902637  0.49534158  0.94572219    -0.56800
N2745       N  0.64721604  0.56652114  0.50695785    -0.36200
N2746       N  0.64573577  0.50945065  0.56077212    -0.56800
C2747       C  0.65423720  0.93271364  0.97489487     0.27400
C2748       C  0.65610741  0.92100778  0.52627880     0.27400
C2749       C  0.65254610  0.57284446  0.97658303     0.27400
C2750       C  0.65285523  0.58825743  0.53553560     0.27400
C2751       C  0.65961594  0.98043647  0.92849667     0.36000
C2752       C  0.65392335  0.52750696  0.92731102     0.36000
C2753       C  0.66244588  0.97344454  0.56850975     0.36000
C2754       C  0.64754389  0.54045691  0.58158442     0.36000
C2755       C  0.66405889  0.89733187  0.98657102    -0.21500
C2756       C  0.66438311  0.88374093  0.51791643    -0.21500
C2757       C  0.66692035  0.60594625  0.98949028    -0.21500
C2758       C  0.66857368  0.62200457  0.52571356    -0.21500
C2759       C  0.67178210  0.99095768  0.89563047    -0.22600
C2760       C  0.66443052  0.51897565  0.89328893    -0.22600
C2761       C  0.67311253  0.98638251  0.60076665    -0.22600
C2762       C  0.65248290  0.53010894  0.61586436    -0.22600
C2763       C  0.65386409  0.94294488  0.93947517    -0.17900
C2764       C  0.65401588  0.93568949  0.56051529    -0.17900
C2765       C  0.64432865  0.57798951  0.57012421    -0.17900
C2766       C  0.64869836  0.56441491  0.94076989    -0.17900
H2767       H  0.67353514  0.87364762  0.97070022     0.15000
H2768       H  0.67165242  0.86156027  0.53583150     0.15000
H2769       H  0.67807434  0.62902448  0.97436669     0.15000
H2770       H  0.67743468  0.64447875  0.54285415     0.15000
H2771       H  0.68158161  0.97242646  0.87481917     0.13300
H2772       H  0.67265655  0.53883316  0.87325928     0.13300
H2773       H  0.67960814  0.96939562  0.62318578     0.13300
H2774       H  0.65732333  0.54884978  0.63779604     0.13300
H2775       H  0.64102111  0.96824086  0.49554089     0.26500
H2776       H  0.63271297  0.54155804  0.50628185     0.26500
N2777       N  0.49133247  0.66254279  0.55425055    -0.36200
N2778       N  0.94089275  0.66855759  0.50390356    -0.56800
N2779       N  0.49866664  0.65249268  0.95829835    -0.36200
N2780       N  0.54946699  0.66621839  0.50385570    -0.56800
C2781       C  0.96409779  0.66982155  0.57761798     0.27400
C2782       C  0.51802799  0.67150543  0.57558409     0.27400
C2783       C  0.96707488  0.66396125  0.92669039     0.27400
C2784       C  0.52761938  0.66160750  0.93887849     0.27400
C2785       C  0.91889211  0.66852236  0.53231574     0.36000
C2786       C  0.92060624  0.66327304  0.97284087     0.36000
C2787       C  0.56816082  0.66814368  0.53350162     0.36000
C2788       C  0.57272530  0.65797318  0.98390459     0.36000
C2789       C  0.97369260  0.68303116  0.61020945    -0.21500
C2790       C  0.50458094  0.68698338  0.60654784    -0.21500
C2791       C  0.97746372  0.67729117  0.89410434    -0.21500
C2792       C  0.51770504  0.67782737  0.90777225    -0.21500
C2793       C  0.88455817  0.67304507  0.52217614    -0.22600
C2794       C  0.88601441  0.66814673  0.98377714    -0.22600
C2795       C  0.60328899  0.67384805  0.52542293    -0.22600
C2796       C  0.60667404  0.66366371  0.99467873    -0.22600
C2797       C  0.92919493  0.66412456  0.56731061    -0.17900
C2798       C  0.55407952  0.66534100  0.56787020    -0.17900
C2799       C  0.56270784  0.65578754  0.94864296    -0.17900
C2800       C  0.93186563  0.65805213  0.93768702    -0.17900
H2801       H  0.95628418  0.69264970  0.63136889     0.15000
H2802       H  0.51937355  0.69771248  0.62836717     0.15000
H2803       H  0.96052760  0.68658027  0.87341410     0.15000
H2804       H  0.53491589  0.68938765  0.88755443     0.15000
H2805       H  0.86164739  0.67674407  0.53924067     0.13300
H2806       H  0.86354801  0.67174104  0.96726345     0.13300
H2807       H  0.62396950  0.67934015  0.54372818     0.13300
H2808       H  0.62942379  0.66997821  0.97822325     0.13300
H2809       H  0.49358029  0.64676122  0.53114311     0.26500
H2810       H  0.49824880  0.63641795  0.98102753     0.26500
C2811       C  0.85915071  0.63964175  0.63923260     0.86900
C2812       C  0.88473015  0.61182776  0.65634778    -0.53400
C2813       C  0.90574284  0.59260036  0.63306764     0.09800
C2814       C  0.89933716  0.60291727  0.59453745     0.20800
C2815       C  0.88282380  0.66581295  0.61647211    -0.54100
C2816       C  0.90387534  0.64639845  0.59286131     0.09900
C2817       C  0.83846471  0.61529647  0.61301749    -0.53600
C2818       C  0.85966026  0.59603586  0.58945355     0.10500
H2819       H  0.88643152  0.60782273  0.68447308     0.15000
H2820       H  0.91660981  0.58702020  0.57554770     0.00700
H2821       H  0.88291077  0.69657360  0.61882069     0.15300
H2822       H  0.80998233  0.61268411  0.61369781     0.15100
N2823       N  0.85154413  0.55815556  0.49976408    -0.36200
N2824       N  0.84549063  0.99109060  0.55739541    -0.56800
N2825       N  0.85038671  0.93251399  0.50457549    -0.36200
N2826       N  0.84743446  0.99278947  0.95389565    -0.56800
C2827       C  0.84239430  0.57879684  0.52859437     0.27400
C2828       C  0.84509007  0.57329017  0.97537754     0.27400
C2829       C  0.84751385  0.91041322  0.53343513     0.27400
C2830       C  0.85034800  0.91215862  0.97777467     0.27400
C2831       C  0.84581782  0.52932116  0.57331989     0.36000
C2832       C  0.84197533  0.96077795  0.57867130     0.36000
C2833       C  0.84687369  0.52234746  0.93154647     0.36000
C2834       C  0.84386038  0.96197935  0.93296951     0.36000
C2835       C  0.82686289  0.61251805  0.51883601    -0.21500
C2836       C  0.82895249  0.60712374  0.98498699    -0.21500
C2837       C  0.84137676  0.87337711  0.52322443    -0.21500
C2838       C  0.84389065  0.87528331  0.98810275    -0.21500
C2839       C  0.83721780  0.51699306  0.60658857    -0.22600
C2840       C  0.83106373  0.97251403  0.61179071    -0.22600
C2841       C  0.83643778  0.50898961  0.89938384    -0.22600
C2842       C  0.83314747  0.97297971  0.90026708    -0.22600
C2843       C  0.84719787  0.56760085  0.56340473    -0.17900
C2844       C  0.85044018  0.56084380  0.94065143    -0.17900
C2845       C  0.85159657  0.92428648  0.94255586    -0.17900
C2846       C  0.84949800  0.92287261  0.56873098    -0.17900
H2847       H  0.81530494  0.63399189  0.53605716     0.15000
H2848       H  0.81773142  0.62791097  0.96770134     0.15000
H2849       H  0.83600408  0.84959234  0.54026219     0.15000
H2850       H  0.83763881  0.85148520  0.97129537     0.15000
H2851       H  0.82783511  0.53419633  0.62851282     0.13300
H2852       H  0.82380206  0.95460675  0.63367644     0.13300
H2853       H  0.82762529  0.52565628  0.87755670     0.13300
H2854       H  0.82599405  0.95455640  0.87879219     0.13300
H2855       H  0.86667934  0.53351169  0.49902961     0.26500
H2856       H  0.85819899  0.96060457  0.50406292     0.26500
C2857       C  0.83334572  0.83077851  0.82280541    -0.16000
C2858       C  0.85519462  0.81979227  0.84786173    -0.31200
H2859       H  0.82725539  0.86075133  0.81981049     0.13000
H2860       H  0.85950982  0.78959187  0.85191213     0.13600
C2861       C  0.81710454  0.67995986  0.85014187    -0.16000
C2862       C  0.84212214  0.65473396  0.84034293    -0.31200
H2863       H  0.81206166  0.68579508  0.87784068     0.13000
H2864       H  0.84769158  0.64997510  0.81255991     0.13600
C2865       C  0.65596847  0.81549641  0.82460443    -0.16000
C2866       C  0.66918018  0.84121512  0.84646780    -0.31200
H2867       H  0.62784532  0.80980937  0.82452760     0.13000
H2868       H  0.69743860  0.84582711  0.84744320     0.13600
C2869       C  0.82398307  0.83423584  0.69080659    -0.16000
C2870       C  0.84866840  0.82282014  0.66671854    -0.31200
H2871       H  0.81583182  0.86382517  0.69204362     0.13000
H2872       H  0.85471788  0.79264953  0.66469105     0.13600
C2873       C  0.68422913  0.66456722  0.83217894    -0.16000
C2874       C  0.65966391  0.67485826  0.85654989    -0.31200
H2875       H  0.68645863  0.63502370  0.82394392     0.13000
H2876       H  0.65649301  0.70491261  0.86271294     0.13600
C2877       C  0.67148754  0.82706371  0.68146399    -0.16000
C2878       C  0.66902832  0.83305506  0.64718742    -0.31200
H2879       H  0.65416886  0.84132207  0.70032131     0.13000
H2880       H  0.68591583  0.81691027  0.62899680     0.13600
C2881       C  0.81340766  0.68696579  0.65930877    -0.16000
C2882       C  0.83680263  0.65979412  0.66666992    -0.31200
H2883       H  0.80945743  0.69525753  0.63231357     0.13000
H2884       H  0.84103978  0.65270019  0.69394792     0.13600
C2885       C  0.63791293  0.67589110  0.66990000    -0.16000
C2886       C  0.67311297  0.67826033  0.67384308    -0.31200
H2887       H  0.62051911  0.69227992  0.68740305     0.13000
H2888       H  0.69157836  0.66338951  0.65674219     0.13600
loop_ 
_geom_bond_atom_site_label_1 
_geom_bond_atom_site_label_2 
_geom_bond_distance 
_geom_bond_site_symmetry_2 
_ccdc_geom_bond_type 
O1            C9   1.270       .  A
O1          Co21   1.910       .  S
O2           C10   1.256       .  A
O2          Co22   1.963       .  S
O3           C11   1.260       .  A
O3          Co23   1.996       .  S
O4           C12   1.280       .  A
O4          Co24   2.046       .  S
O5           C11   1.258       .  A
O5          Co22   1.963       .  S
O6           C12   1.261       .  A
O6          Co21   1.962       .  S
O7           C10   1.274       .  A
O7          Co24   2.037       .  S
O8            C9   1.288       .  A
O8          Co23   2.091       .  S
C9          C350   1.477       .  S
C10         C330   1.476       .  S
C11         C338   1.461       .  S
C12         C342   1.477       .  S
O13          C26   1.272       .  A
O13         Co21   2.039       .  S
O14          C27   1.275       .  A
O14         Co22   2.017       .  S
O15          C28   1.268       .  A
O15         Co23   1.904       .  S
O16          C29   1.259       .  A
O16         Co24   1.953       .  S
O17          C29   1.275       .  A
O17         Co22   2.043       .  S
O18          C28   1.290       .  A
O18         Co21   2.095       .  S
O19          C26   1.251       .  A
O19         Co24   1.965       .  S
O20          C27   1.274       .  A
O20         Co23   1.968       .  S
Co21         O25   2.012       .  S
Co22         O25   2.025       .  S
Co23         O25   2.019       .  S
Co24         O25   2.030       .  S
C26         C354   1.474       .  S
C27         C346   1.473       .  S
C28         C359   1.469       .  S
C29         C334   1.485       .  S
C30          C31   1.541       .  S
C30          C36   1.552       .  S
C30          C34   1.542       .  S
C30         C331   1.516       .  S
C31          H38   1.086       .  S
C31          C32   1.364       .  D
C32          C99   1.490       .  S
C32          C33   1.545       .  S
C33          C37   1.540       .  S
C33          C35   1.543       .  S
C33          H39   1.112       .  S
C34          H40   1.086       .  S
C34          C35   1.360       .  D
C35         C159   1.493       .  S
C36          H41   1.085       .  S
C36          C37   1.370       .  D
C37         C318   1.497       .  S
C42          C43   1.543       .  S
C42          C48   1.547       .  S
C42          C46   1.544       .  S
C42         C335   1.513       .  S
C43          H50   1.086       .  S
C43          C44   1.366       .  D
C44         C317   1.497       .  S
C44          C45   1.546       .  S
C45          C49   1.539       .  S
C45          C47   1.544       .  S
C45          H51   1.112       .  S
C46          H52   1.086       .  S
C46          C47   1.366       .  D
C47         C273   1.494       .  S
C48          H53   1.086       .  S
C48          C49   1.361       .  D
C49         C100   1.488       .  S
C54          C55   1.540       .  S
C54          C60   1.536       .  S
C54          C58   1.544       .  S
C54         C339   1.494       .  S
C55          H62   1.086       .  S
C55          C56   1.360       .  D
C56         C236   1.485       .  S
C56          C57   1.541       .  S
C57          C61   1.546       .  S
C57          C59   1.542       .  S
C57          H63   1.111       .  S
C58          H64   1.086       .  S
C58          C59   1.364       .  D
C59         C156   1.491       .  S
C60          H65   1.086       .  S
C60          C61   1.357       .  D
C61          C98   1.485       .  S
C66          C67   1.541       .  S
C66          C72   1.536       .  S
C66          C70   1.556       .  S
C66         C347   1.514       .  S
C67          H74   1.086       .  S
C67          C68   1.361       .  D
C68         C101   1.491       .  S
C68          C69   1.543       .  S
C69          C73   1.543       .  S
C69          C71   1.539       .  S
C69          H75   1.112       .  S
C70          H76   1.085       .  S
C70          C71   1.375       .  D
C71         C272   1.502       .  S
C72          H77   1.086       .  S
C72          C73   1.355       .  D
C73         C239   1.480       .  S
N78         H110   1.042       .  S
N78          C82   1.346       .  A
N78        C1527   1.350   1_455  A
N79          C87   1.348   1_565  A
N79         C808   1.347       .  A
N80         H111   1.037       .  S
N80          C84   1.351   1_655  A
N80        C1529   1.349       .  A
N81          C89   1.347   1_565  A
N81         C810   1.347       .  A
C82          C90   1.381       .  A
C82          C98   1.397       .  A
C83        N1522   1.348       .  A
C83          C99   1.397       .  A
C83          C91   1.380       .  A
C84          C92   1.380       .  A
C84         C101   1.406       .  A
C85        N1524   1.349       .  A
C85         C100   1.404       .  A
C85          C93   1.381       .  A
C86         N801   1.347       .  A
C86          C98   1.401       .  A
C86          C94   1.378       .  A
C87         C101   1.406       .  A
C87          C95   1.379       .  A
C88         N803   1.350       .  A
C88          C96   1.377       .  A
C88          C99   1.405       .  A
C89          C97   1.379       .  A
C89         C100   1.404       .  A
C90        C1535   1.379   1_455  A
C90         H102   1.082       .  S
C91        C1534   1.377       .  A
C91         H103   1.082       .  S
C92        C1537   1.379   1_455  A
C92         H104   1.081       .  S
C93        C1536   1.380       .  A
C93         H105   1.082       .  S
C94         C817   1.376       .  A
C94         H106   1.081       .  S
C95         C816   1.374   1_545  A
C95         H107   1.080       .  S
C96         C819   1.376       .  A
C96         H108   1.081       .  S
C97         C818   1.377   1_545  A
C97         H109   1.082       .  S
C112        C113   1.555       .  S
C112        C118   1.535       .  S
C112        C116   1.546       .  S
C112        C343   1.516       .  S
C113        H120   1.085       .  S
C113        C114   1.374       .  D
C114        C319   1.509       .  S
C114        C115   1.546       .  S
C115        C119   1.542       .  S
C115        C117   1.541       .  S
C115        H121   1.112       .  S
C116        H122   1.086       .  S
C116        C117   1.364       .  D
C117        C158   1.492       .  S
C118        H123   1.086       .  S
C118        C119   1.355       .  D
C119        C203   1.481       .  S
C124        C125   1.555       .  S
C124        C130   1.537       .  S
C124        C128   1.543       .  S
C124        C351   1.517       .  S
C125        H132   1.085       .  S
C125        C126   1.374       .  D
C126        C202   1.503       .  S
C126        C127   1.545       .  S
C127        C131   1.544       .  S
C127        C129   1.541       .  S
C127        H133   1.112       .  S
C128        H134   1.086       .  S
C128        C129   1.363       .  D
C129        C157   1.491       .  S
C130        H135   1.086       .  S
C130        C131   1.357       .  D
C131        C237   1.489       .  S
N136        H168   1.039       .  S
N136        C141   1.351       .  A
N136        C501   1.348   1_554  A
N137        C144   1.350       .  A
N137       C1589   1.350   1_455  A
N138        H169   1.039       .  S
N138        C143   1.349   1_556  A
N138        C503   1.349       .  A
N139        C146   1.351       .  A
N139       C1591   1.349   1_455  A
C140        N497   1.352       .  A
C140        C148   1.382       .  A
C140        C156   1.407       .  A
C141        C157   1.404       .  A
C141        C149   1.381       .  A
C142        N499   1.351       .  A
C142        C150   1.381       .  A
C142        C159   1.405       .  A
C143        C158   1.401       .  A
C143        C151   1.380       .  A
C144        C156   1.405       .  A
C144        C152   1.377       .  A
C145       N1581   1.350       .  A
C145        C159   1.404       .  A
C145        C153   1.378       .  A
C146        C154   1.377       .  A
C146        C157   1.405       .  A
C147       N1583   1.352       .  A
C147        C155   1.378       .  A
C147        C158   1.410       .  A
C148        C510   1.380       .  A
C148        H160   1.082       .  S
C149        C509   1.377   1_554  A
C149        H161   1.081       .  S
C150        C512   1.378       .  A
C150        H162   1.082       .  S
C151        C511   1.378   1_554  A
C151        H163   1.082       .  S
C152       C1597   1.372   1_455  A
C152        H164   1.080       .  S
C153       C1596   1.372       .  A
C153        H165   1.080       .  S
C154       C1599   1.374   1_455  A
C154        H166   1.080       .  S
C155       C1598   1.377       .  A
C155        H167   1.081       .  S
C170        C171   1.549       .  S
C170        C176   1.539       .  S
C170        C174   1.546       .  S
C170        C358   1.513       .  S
C171        H178   1.086       .  S
C171        C172   1.369       .  D
C172        C238   1.494       .  S
C172        C173   1.542       .  S
C173        C177   1.544       .  S
C173        C175   1.544       .  S
C173        H179   1.111       .  S
C174        H180   1.086       .  S
C174        C175   1.364       .  D
C175        C271   1.499       .  S
C176        H181   1.086       .  S
C176        C177   1.360       .  D
C177        C205   1.489       .  S
N182        H214   1.039       .  S
N182        C186   1.354       .  A
N182       C1631   1.352   1_455  A
N183        C191   1.351       .  A
N183        C912   1.351   1_545  A
N184        H215   1.039       .  S
N184        C188   1.348   1_655  A
N184       C1633   1.349       .  A
N185        C193   1.353       .  A
N185        C914   1.349   1_545  A
C186        C194   1.382       .  A
C186        C202   1.411       .  A
C187       N1626   1.347       .  A
C187        C203   1.401       .  A
C187        C195   1.381       .  A
C188        C196   1.381       .  A
C188        C205   1.401       .  A
C189       N1628   1.356       .  A
C189        C204   1.413       .  A
C189        C197   1.380       .  A
C190        N905   1.351       .  A
C190        C202   1.406       .  A
C190        C198   1.377       .  A
C191        C205   1.408       .  A
C191        C199   1.378       .  A
C192        N907   1.346       .  A
C192        C200   1.378       .  A
C192        C203   1.399       .  A
C193        C201   1.378       .  A
C193        C204   1.411       .  A
C194       C1639   1.384   1_455  A
C194        H206   1.082       .  S
C195       C1638   1.378       .  A
C195        H207   1.082       .  S
C196       C1641   1.376   1_455  A
C196        H208   1.082       .  S
C197       C1640   1.380       .  A
C197        H209   1.081       .  S
C198        C921   1.376       .  A
C198        H210   1.082       .  S
C199        C920   1.378   1_545  A
C199        H211   1.081       .  S
C200        C923   1.372       .  A
C200        H212   1.080       .  S
C201        C922   1.377   1_545  A
C201        H213   1.081       .  S
C204        C286   1.507       .  S
N216        H248   1.039       .  S
N216        C221   1.349       .  A
N216        C581   1.349   1_554  A
N217        C225   1.343       .  A
N217        C946   1.348   1_545  A
N218        H249   1.040       .  S
N218        C223   1.351       .  A
N218        C583   1.347   1_554  A
N219        C227   1.350       .  A
N219        C948   1.348   1_545  A
C220        N577   1.349       .  A
C220        C228   1.381       .  A
C220        C236   1.406       .  A
C221        C237   1.403       .  A
C221        C229   1.381       .  A
C222        N579   1.348       .  A
C222        C230   1.382       .  A
C222        C239   1.403       .  A
C223        C238   1.402       .  A
C223        C231   1.380       .  A
C224        N939   1.348       .  A
C224        C236   1.404       .  A
C224        C232   1.378       .  A
C225        C239   1.397       .  A
C225        C233   1.380       .  A
C226        N941   1.350       .  A
C226        C234   1.378       .  A
C226        C237   1.406       .  A
C227        C235   1.376       .  A
C227        C238   1.403       .  A
C228        C590   1.379       .  A
C228        H240   1.081       .  S
C229        C589   1.376   1_554  A
C229        H241   1.081       .  S
C230        C592   1.381       .  A
C230        H242   1.082       .  S
C231        C591   1.380   1_554  A
C231        H243   1.082       .  S
C232        C955   1.374       .  A
C232        H244   1.080       .  S
C233        C954   1.373   1_545  A
C233        H245   1.081       .  S
C234        C957   1.375       .  A
C234        H246   1.080       .  S
C235        C956   1.376   1_545  A
C235        H247   1.081       .  S
N250        H282   1.038       .  S
N250        C255   1.351   1_655  A
N250       C1698   1.353       .  A
N251        C258   1.349   1_556  A
N251        C620   1.351       .  A
N252        H283   1.038       .  S
N252        C257   1.353   1_655  A
N252       C1700   1.356       .  A
N253        C260   1.354       .  A
N253        C622   1.354   1_554  A
C254       N1694   1.349       .  A
C254        C262   1.382       .  A
C254        C270   1.403       .  A
C255        C271   1.409       .  A
C255        C263   1.382       .  A
C256       N1696   1.352       .  A
C256        C264   1.381       .  A
C256        C273   1.410       .  A
C257        C272   1.413       .  A
C257        C265   1.382       .  A
C258        C270   1.404       .  A
C258        C266   1.378       .  A
C259        N612   1.349       .  A
C259        C273   1.406       .  A
C259        C267   1.379       .  A
C260        C268   1.378       .  A
C260        C271   1.414       .  A
C261        N614   1.354       .  A
C261        C269   1.379       .  A
C261        C272   1.416       .  A
C262       C1707   1.377       .  A
C262        H274   1.082       .  S
C263       C1706   1.379   1_455  A
C263        H275   1.081       .  S
C264       C1709   1.381       .  A
C264        H276   1.082       .  S
C265       C1708   1.383   1_455  A
C265        H277   1.082       .  S
C266        C628   1.372   1_554  A
C266        H278   1.080       .  S
C267        C627   1.374       .  A
C267        H279   1.081       .  S
C268        C630   1.377   1_554  A
C268        H280   1.080       .  S
C269        C629   1.378       .  A
C269        H281   1.081       .  S
C270        C289   1.487       .  S
C284        C285   1.556       .  S
C284        C290   1.542       .  S
C284        C288   1.536       .  S
C284        C355   1.516       .  S
C285        H292   1.085       .  S
C285        C286   1.373       .  D
C286        C287   1.543       .  S
C287        C291   1.547       .  S
C287        C289   1.543       .  S
C287        H293   1.111       .  S
C288        H294   1.087       .  S
C288        C289   1.356       .  D
C290        H295   1.086       .  S
C290        C291   1.364       .  D
C291        C316   1.493       .  S
N296        H328   1.040   1_556  S
N296        C300   1.349   1_556  A
N296        C662   1.351       .  A
N297        C305   1.353       .  A
N297       C1026   1.351       .  A
N298        H329   1.036   1_556  S
N298        C302   1.355   1_556  A
N298        C664   1.354       .  A
N299        C307   1.351       .  A
N299       C1028   1.348       .  A
C300        C308   1.381       .  A
C300        C316   1.402       .  A
C301        N657   1.351       .  A
C301        C317   1.401       .  A
C301        C309   1.380       .  A
C302        C310   1.380       .  A
C302        C319   1.415       .  A
C303        N659   1.353       .  A
C303        C318   1.407       .  A
C303        C311   1.380       .  A
C304       N1019   1.350   1_545  A
C304        C316   1.406       .  A
C304        C312   1.377       .  A
C305        C319   1.414       .  A
C305        C313   1.380       .  A
C306       N1021   1.352   1_545  A
C306        C314   1.376       .  A
C306        C317   1.407       .  A
C307        C315   1.377       .  A
C307        C318   1.407       .  A
C308        C670   1.379   1_554  A
C308        H320   1.082       .  S
C309        C669   1.376       .  A
C309        H321   1.082       .  S
C310        C672   1.382   1_554  A
C310        H322   1.082       .  S
C311        C671   1.379       .  A
C311        H323   1.082       .  S
C312       C1035   1.377   1_545  A
C312        H324   1.081       .  S
C313       C1034   1.380       .  A
C313        H325   1.081       .  S
C314       C1037   1.375   1_545  A
C314        H326   1.080       .  S
C315       C1036   1.377       .  A
C315        H327   1.081       .  S
C330        H332   1.087       .  S
C330        C331   1.343       .  D
C331        H333   1.088       .  S
C334        H336   1.086       .  S
C334        C335   1.351       .  D
C335        H337   1.087       .  S
C338        H340   1.087       .  S
C338        C339   1.341       .  D
C339        H341   1.088       .  S
C342        H344   1.086       .  S
C342        C343   1.347       .  D
C343        H345   1.087       .  S
C346        H348   1.087       .  S
C346        C347   1.345       .  D
C347        H349   1.087       .  S
C350        H352   1.086       .  S
C350        C351   1.338       .  D
C351        H353   1.088       .  S
C354        H356   1.087       .  S
C354        C355   1.338       .  D
C355        H357   1.088       .  S
C358        H360   1.088       .  S
C358        C359   1.344       .  D
C359        H361   1.086       .  S
O362        C370   1.243       .  A
O362       Co382   1.954       .  S
O363        C371   1.280       .  A
O363       Co383   2.041       .  S
O364        C372   1.254       .  A
O364       Co384   1.969       .  S
O365        C373   1.261       .  A
O365       Co385   1.867       .  S
O366        C372   1.266       .  A
O366       Co383   1.998       .  S
O367        C373   1.300       .  A
O367       Co382   2.086       .  S
O368        C371   1.268       .  A
O368       Co385   1.988       .  S
O369        C370   1.263       .  A
O369       Co384   1.992       .  S
C370        C711   1.463       .  S
C371        C691   1.492       .  S
C372        C699   1.463       .  S
C373        C703   1.454       .  S
O374        C387   1.236       .  A
O374       Co382   1.909       .  S
O375        C388   1.271       .  A
O375       Co383   1.967       .  S
O376        C389   1.282       .  A
O376       Co384   2.053       .  S
O377        C390   1.262       .  A
O377       Co385   2.002       .  S
O378        C390   1.265       .  A
O378       Co383   1.990       .  S
O379        C389   1.262       .  A
O379       Co382   1.961       .  S
O380        C387   1.268       .  A
O380       Co385   2.051       .  S
O381        C388   1.272       .  A
O381       Co384   2.021       .  S
Co382       O386   2.048       .  S
Co383       O386   2.052       .  S
Co384       O386   2.071       .  S
Co385       O386   1.964       .  S
C387        C715   1.457       .  S
C388        C707   1.480       .  S
C389        C720   1.486       .  S
C390        C695   1.484       .  S
C391        C392   1.558       .  S
C391        C397   1.546       .  S
C391        C395   1.540       .  S
C391        C692   1.527       .  S
C392        H399   1.085       .  S
C392        C393   1.377       .  D
C393        C460   1.516       .  S
C393        C394   1.549       .  S
C394        C398   1.543       .  S
C394        C396   1.536       .  S
C394        H400   1.112       .  S
C395        H401   1.087       .  S
C395        C396   1.354       .  D
C396        C520   1.481       .  S
C397        H402   1.086       .  S
C397        C398   1.368       .  D
C398        C679   1.497       .  S
C403        C404   1.543       .  S
C403        C409   1.546       .  S
C403        C407   1.553       .  S
C403        C696   1.521       .  S
C404        H411   1.086       .  S
C404        C405   1.359       .  D
C405        C678   1.498       .  S
C405        C406   1.547       .  S
C406        C410   1.540       .  S
C406        C408   1.544       .  S
C406        H412   1.111       .  S
C407        H413   1.086       .  S
C407        C408   1.372       .  D
C408        C634   1.504       .  S
C409        H414   1.086       .  S
C409        C410   1.367       .  D
C410        C461   1.491       .  S
C415        C416   1.538       .  S
C415        C421   1.544       .  S
C415        C419   1.536       .  S
C415        C700   1.494       .  S
C416        H423   1.086       .  S
C416        C417   1.362       .  D
C417        C597   1.483       .  S
C417        C418   1.541       .  S
C418        C422   1.547       .  S
C418        C420   1.542       .  S
C418        H424   1.112       .  S
C419        H425   1.087       .  S
C419        C420   1.355       .  D
C420        C517   1.483       .  S
C421        H426   1.086       .  S
C421        C422   1.363       .  D
C422        C459   1.491       .  S
C427        C428   1.544       .  S
C427        C433   1.537       .  S
C427        C431   1.553       .  S
C427        C708   1.511       .  S
C428        H435   1.086       .  S
C428        C429   1.365       .  D
C429        C462   1.494       .  S
C429        C430   1.544       .  S
C430        C434   1.541       .  S
C430        C432   1.543       .  S
C430        H436   1.112       .  S
C431        H437   1.085       .  S
C431        C432   1.375       .  D
C432        C633   1.503       .  S
C433        H438   1.087       .  S
C433        C434   1.351       .  D
C434        C600   1.481       .  S
N439        H471   1.040       .  S
N439       C1888   1.353   1_455  A
N439        C443   1.348       .  A
N440       C1169   1.349   1_545  A
N440        C448   1.350       .  A
N441        H472   1.035       .  S
N441       C1890   1.351       .  A
N441        C445   1.351   1_655  A
N442       C1171   1.350       .  A
N442        C450   1.349   1_565  A
C443        C451   1.381       .  A
C443        C459   1.402       .  A
C444       N1883   1.357       .  A
C444        C460   1.415       .  A
C444        C452   1.382       .  A
C445        C453   1.381       .  A
C445        C462   1.409       .  A
C446       N1885   1.351       .  A
C446        C461   1.409       .  A
C446        C454   1.381       .  A
C447       N1162   1.349       .  A
C447        C459   1.408       .  A
C447        C455   1.380       .  A
C448        C462   1.410       .  A
C448        C456   1.381       .  A
C449       N1164   1.355       .  A
C449        C457   1.377       .  A
C449        C460   1.412       .  A
C450        C458   1.379       .  A
C450        C461   1.408       .  A
C451       C1896   1.380   1_455  A
C451        H463   1.082       .  S
C452       C1895   1.383       .  A
C452        H464   1.082       .  S
C453       C1898   1.380   1_455  A
C453        H465   1.082       .  S
C454       C1897   1.381       .  A
C454        H466   1.082       .  S
C455       C1178   1.380       .  A
C455        H467   1.082       .  S
C456       C1177   1.379   1_545  A
C456        H468   1.081       .  S
C457       C1180   1.377       .  A
C457        H469   1.081       .  S
C458       C1179   1.377   1_545  A
C458        H470   1.081       .  S
C473        C474   1.535       .  S
C473        C479   1.542       .  S
C473        C477   1.543       .  S
C473        C704   1.494       .  S
C474        H481   1.086       .  S
C474        C475   1.360       .  D
C475        C680   1.488       .  S
C475        C476   1.547       .  S
C476        C480   1.544       .  S
C476        C478   1.542       .  S
C476        H482   1.111       .  S
C477        H483   1.086       .  S
C477        C478   1.362       .  D
C478        C519   1.490       .  S
C479        H484   1.086       .  S
C479        C480   1.358       .  D
C480        C564   1.485       .  S
C485        C486   1.540       .  S
C485        C491   1.540       .  S
C485        C489   1.549       .  S
C485        C712   1.501       .  S
C486        H493   1.086       .  S
C486        C487   1.357       .  D
C487        C563   1.487       .  S
C487        C488   1.543       .  S
C488        C492   1.547       .  S
C488        C490   1.545       .  S
C488        H494   1.111       .  S
C489        H495   1.086       .  S
C489        C490   1.370       .  D
C490        C518   1.501       .  S
C491        H496   1.086       .  S
C491        C492   1.361       .  D
C492        C598   1.492       .  S
N497        H529   1.039       .  S
N497        C502   1.352       .  A
N498        C505   1.347       .  A
N498       C1950   1.348   1_455  A
N499        H530   1.039       .  S
N499        C504   1.350       .  A
N500        C507   1.354       .  A
N500       C1952   1.354   1_455  A
C501        C509   1.381       .  A
C501        C517   1.403       .  A
C502        C518   1.407       .  A
C502        C510   1.381       .  A
C503        C511   1.382       .  A
C503        C520   1.404       .  A
C504        C519   1.404       .  A
C504        C512   1.382       .  A
C505        C517   1.401       .  A
C505        C513   1.378       .  A
C506       N1942   1.346       .  A
C506        C520   1.398       .  A
C506        C514   1.377       .  A
C507        C515   1.378       .  A
C507        C518   1.414       .  A
C508       N1944   1.351       .  A
C508        C516   1.378       .  A
C508        C519   1.409       .  A
C509        H521   1.081       .  S
C510        H522   1.082       .  S
C511        H523   1.081       .  S
C512        H524   1.082       .  S
C513       C1958   1.372   1_455  A
C513        H525   1.080       .  S
C514       C1957   1.369       .  A
C514        H526   1.080       .  S
C515       C1960   1.378   1_455  A
C515        H527   1.081       .  S
C516       C1959   1.375       .  A
C516        H528   1.080       .  S
C531        C532   1.551       .  S
C531        C537   1.542       .  S
C531        C535   1.553       .  S
C531        C719   1.527       .  S
C532        H539   1.086       .  S
C532        C533   1.370       .  D
C533        C599   1.496       .  S
C533        C534   1.542       .  S
C534        C538   1.547       .  S
C534        C536   1.541       .  S
C534        H540   1.111       .  S
C535        H541   1.086       .  S
C535        C536   1.368       .  D
C536        C632   1.505       .  S
C537        H542   1.086       .  S
C537        C538   1.364       .  D
C538        C566   1.498       .  S
N543        H575   1.039       .  S
N543       C1992   1.348   1_455  A
N543        C547   1.350       .  A
N544       C1273   1.352   1_545  A
N544        C552   1.352       .  A
N545        H576   1.037       .  S
N545       C1994   1.352       .  A
N545        C549   1.351   1_655  A
N546       C1275   1.351   1_545  A
N546        C554   1.349       .  A
C547        C555   1.381       .  A
C547        C563   1.403       .  A
C548       N1987   1.349       .  A
C548        C564   1.405       .  A
C548        C556   1.382       .  A
C549        C557   1.381       .  A
C549        C566   1.409       .  A
C550       N1989   1.350       .  A
C550        C565   1.405       .  A
C550        C558   1.381       .  A
C551       N1266   1.347       .  A
C551        C563   1.401       .  A
C551        C559   1.378       .  A
C552        C566   1.413       .  A
C552        C560   1.379       .  A
C553       N1268   1.345       .  A
C553        C561   1.378       .  A
C553        C564   1.397       .  A
C554        C562   1.379       .  A
C554        C565   1.407       .  A
C555       C2000   1.382   1_455  A
C555        H567   1.082       .  S
C556       C1999   1.383       .  A
C556        H568   1.082       .  S
C557       C2002   1.380   1_455  A
C557        H569   1.082       .  S
C558       C2001   1.379       .  A
C558        H570   1.082       .  S
C559       C1282   1.375       .  A
C559        H571   1.081       .  S
C560       C1281   1.378   1_545  A
C560        H572   1.081       .  S
C561       C1284   1.374       .  A
C561        H573   1.082       .  S
C562       C1283   1.375   1_545  A
C562        H574   1.081       .  S
C565        C647   1.489       .  S
N577        H609   1.035       .  S
N577        C582   1.349       .  A
N578       C1307   1.348   1_545  A
N578        C586   1.345       .  A
N579        H610   1.041       .  S
N579        C584   1.353       .  A
N580       C1309   1.346   1_545  A
N580        C588   1.349       .  A
C581        C589   1.381       .  A
C581        C597   1.402       .  A
C582        C598   1.406       .  A
C582        C590   1.382       .  A
C583        C591   1.382       .  A
C583        C600   1.402       .  A
C584        C599   1.404       .  A
C584        C592   1.380       .  A
C585       N1300   1.347       .  A
C585        C597   1.401       .  A
C585        C593   1.377       .  A
C586        C600   1.399       .  A
C586        C594   1.378       .  A
C587       N1302   1.351       .  A
C587        C595   1.379       .  A
C587        C598   1.412       .  A
C588        C596   1.377       .  A
C588        C599   1.400       .  A
C589        H601   1.081       .  S
C590        H602   1.082       .  S
C591        H603   1.082       .  S
C592        H604   1.082       .  S
C593       C1316   1.372       .  A
C593        H605   1.080       .  S
C594       C1315   1.373   1_545  A
C594        H606   1.080       .  S
C595       C1318   1.379       .  A
C595        H607   1.081       .  S
C596       C1317   1.374   1_545  A
C596        H608   1.081       .  S
N611        H643   1.040       .  S
N611        C616   1.352   1_655  A
N611       C2059   1.351       .  A
N612        C619   1.349       .  A
N613        H644   1.039       .  S
N613        C618   1.354   1_655  A
N613       C2061   1.354       .  A
N614        C621   1.356       .  A
C615       N2055   1.350       .  A
C615        C623   1.381       .  A
C615        C631   1.404       .  A
C616        C632   1.406       .  A
C616        C624   1.381       .  A
C617       N2057   1.357       .  A
C617        C625   1.381       .  A
C617        C634   1.417       .  A
C618        C633   1.412       .  A
C618        C626   1.382       .  A
C619        C631   1.405       .  A
C619        C627   1.378       .  A
C620        C634   1.406       .  A
C620        C628   1.378       .  A
C621        C629   1.377       .  A
C621        C632   1.416       .  A
C622        C630   1.378       .  A
C622        C633   1.414       .  A
C623       C2068   1.378       .  A
C623        H635   1.082       .  S
C624       C2067   1.378   1_455  A
C624        H636   1.082       .  S
C625       C2070   1.384       .  A
C625        H637   1.082       .  S
C626       C2069   1.382   1_455  A
C626        H638   1.082       .  S
C627        H639   1.081       .  S
C628        H640   1.081       .  S
C629        H641   1.080       .  S
C630        H642   1.081       .  S
C631        C650   1.489       .  S
C645        C646   1.542       .  S
C645        C651   1.537       .  S
C645        C649   1.542       .  S
C645        C716   1.497       .  S
C646        H653   1.086       .  S
C646        C647   1.363       .  D
C647        C648   1.542       .  S
C648        C652   1.544       .  S
C648        C650   1.543       .  S
C648        H654   1.112       .  S
C649        H655   1.086       .  S
C649        C650   1.362       .  D
C651        H656   1.086       .  S
C651        C652   1.358       .  D
C652        C677   1.485       .  S
N657        H689   1.041       .  S
N657        C661   1.348       .  A
N658       C1387   1.352       .  A
N658        C666   1.350       .  A
N659        H690   1.037       .  S
N659        C663   1.348       .  A
N660       C1389   1.350       .  A
N660        C668   1.349       .  A
C661        C669   1.380       .  A
C661        C677   1.399       .  A
C662        C678   1.404       .  A
C662        C670   1.382       .  A
C663        C671   1.382       .  A
C663        C680   1.406       .  A
C664        C679   1.416       .  A
C664        C672   1.381       .  A
C665       N1380   1.347   1_545  A
C665        C677   1.403       .  A
C665        C673   1.379       .  A
C666        C680   1.410       .  A
C666        C674   1.379       .  A
C667       N1382   1.351   1_545  A
C667        C675   1.377       .  A
C667        C678   1.407       .  A
C668        C676   1.379       .  A
C668        C679   1.405       .  A
C669        H681   1.082       .  S
C670        H682   1.082       .  S
C671        H683   1.081       .  S
C672        H684   1.081       .  S
C673       C1396   1.376   1_545  A
C673        H685   1.081       .  S
C674       C1395   1.376       .  A
C674        H686   1.080       .  S
C675       C1398   1.377   1_545  A
C675        H687   1.081       .  S
C676       C1397   1.375       .  A
C676        H688   1.081       .  S
C691        H693   1.085       .  S
C691        C692   1.347       .  D
C692        H694   1.088       .  S
C695        H697   1.086       .  S
C695        C696   1.344       .  D
C696        H698   1.087       .  S
C699        H701   1.087       .  S
C699        C700   1.338       .  D
C700        H702   1.088       .  S
C703        H705   1.088       .  S
C703        C704   1.334       .  D
C704        H706   1.087       .  S
C707        H709   1.086       .  S
C707        C708   1.341       .  D
C708        H710   1.088       .  S
C711        H713   1.087       .  S
C711        C712   1.336       .  D
C712        H714   1.088       .  S
C715        H717   1.085       .  S
C715        C716   1.343       .  D
C716        H718   1.089       .  S
C719        H721   1.087       .  S
C719        C720   1.351       .  D
C720        H722   1.086       .  S
O723        C731   1.271       .  A
O723       Co743   1.896       .  S
O724        C732   1.254       .  A
O724       Co744   1.957       .  S
O725        C733   1.261       .  A
O725       Co745   2.010       .  S
O726        C734   1.278       .  A
O726       Co746   2.031       .  S
O727        C733   1.256       .  A
O727       Co744   1.958       .  S
O728        C734   1.269       .  A
O728       Co743   1.983       .  S
O729        C732   1.273       .  A
O729       Co746   2.024       .  S
O730        C731   1.289       .  A
O730       Co745   2.092       .  S
C731       C1072   1.471       .  S
C732       C1052   1.463       .  S
C733       C1060   1.466       .  S
C734       C1064   1.488       .  S
O735        C748   1.269       .  A
O735       Co743   2.024       .  S
O736        C749   1.279       .  A
O736       Co744   2.032       .  S
O737        C750   1.265       .  A
O737       Co745   1.884       .  S
O738        C751   1.262       .  A
O738       Co746   1.956       .  S
O739        C751   1.273       .  A
O739       Co744   2.028       .  S
O740        C750   1.294       .  A
O740       Co743   2.110       .  S
O741        C748   1.259       .  A
O741       Co746   1.967       .  S
O742        C749   1.267       .  A
O742       Co745   1.969       .  S
Co743       O747   2.002       .  S
Co744       O747   2.025       .  S
Co745       O747   2.004       .  S
Co746       O747   2.029       .  S
C748       C1076   1.482       .  S
C749       C1068   1.476       .  S
C750       C1081   1.460       .  S
C751       C1056   1.476       .  S
C752        C753   1.534       .  S
C752        C758   1.550       .  S
C752        C756   1.542       .  S
C752       C1053   1.502       .  S
C753        H760   1.087       .  S
C753        C754   1.354       .  D
C754        C821   1.483       .  S
C754        C755   1.547       .  S
C755        C759   1.540       .  S
C755        C757   1.542       .  S
C755        H761   1.112       .  S
C756        H762   1.086       .  S
C756        C757   1.362       .  D
C757        C881   1.490       .  S
C758        H763   1.085       .  S
C758        C759   1.370       .  D
C759       C1040   1.493       .  S
C764        C765   1.539       .  S
C764        C770   1.544       .  S
C764        C768   1.545       .  S
C764       C1057   1.507       .  S
C765        H772   1.086       .  S
C765        C766   1.361       .  D
C766       C1039   1.490       .  S
C766        C767   1.546       .  S
C767        C771   1.541       .  S
C767        C769   1.543       .  S
C767        H773   1.111       .  S
C768        H774   1.086       .  S
C768        C769   1.367       .  D
C769        C995   1.495       .  S
C770        H775   1.086       .  S
C770        C771   1.361       .  D
C771        C822   1.489       .  S
C776        C777   1.542       .  S
C776        C782   1.535       .  S
C776        C780   1.545       .  S
C776       C1061   1.497       .  S
C777        H784   1.086       .  S
C777        C778   1.360       .  D
C778        C958   1.486       .  S
C778        C779   1.540       .  S
C779        C783   1.543       .  S
C779        C781   1.542       .  S
C779        H785   1.112       .  S
C780        H786   1.086       .  S
C780        C781   1.366       .  D
C781        C878   1.493       .  S
C782        H787   1.086       .  S
C782        C783   1.357       .  D
C783        C820   1.480       .  S
C788        C789   1.548       .  S
C788        C794   1.537       .  S
C788        C792   1.549       .  S
C788       C1069   1.512       .  S
C789        H796   1.086       .  S
C789        C790   1.368       .  D
C790        C823   1.492       .  S
C790        C791   1.540       .  S
C791        C795   1.546       .  S
C791        C793   1.541       .  S
C791        H797   1.112       .  S
C792        H798   1.086       .  S
C792        C793   1.366       .  D
C793        C994   1.497       .  S
C794        H799   1.086       .  S
C794        C795   1.359       .  D
C795        C961   1.489       .  S
N800        H832   1.041       .  S
N800       C2249   1.347   1_455  A
N800        C804   1.346       .  A
N801        C809   1.349       .  A
N802        H833   1.038       .  S
N802       C2251   1.350   1_455  A
N802        C806   1.352       .  A
N803        C811   1.349       .  A
C804        C812   1.381       .  A
C804        C820   1.396       .  A
C805       N2244   1.346       .  A
C805        C821   1.394       .  A
C805        C813   1.381       .  A
C806        C814   1.380       .  A
C806        C823   1.406       .  A
C807       N2246   1.349       .  A
C807        C822   1.406       .  A
C807        C815   1.382       .  A
C808        C820   1.401       .  A
C808        C816   1.377       .  A
C809        C823   1.404       .  A
C809        C817   1.379       .  A
C810        C818   1.379       .  A
C810        C821   1.403       .  A
C811        C819   1.379       .  A
C811        C822   1.406       .  A
C812       C2257   1.378   1_455  A
C812        H824   1.082       .  S
C813       C2256   1.375       .  A
C813        H825   1.082       .  S
C814       C2259   1.379   1_455  A
C814        H826   1.082       .  S
C815       C2258   1.381       .  A
C815        H827   1.082       .  S
C816        H828   1.081       .  S
C817        H829   1.081       .  S
C818        H830   1.081       .  S
C819        H831   1.081       .  S
C834        C835   1.549       .  S
C834        C840   1.543       .  S
C834        C838   1.548       .  S
C834       C1065   1.522       .  S
C835        H842   1.085       .  S
C835        C836   1.370       .  D
C836       C1041   1.502       .  S
C836        C837   1.546       .  S
C837        C841   1.548       .  S
C837        C839   1.540       .  S
C837        H843   1.111       .  S
C838        H844   1.086       .  S
C838        C839   1.363       .  D
C839        C880   1.495       .  S
C840        H845   1.086       .  S
C840        C841   1.365       .  D
C841        C925   1.498       .  S
C846        C847   1.552       .  S
C846        C852   1.532       .  S
C846        C850   1.544       .  S
C846       C1073   1.507       .  S
C847        H854   1.085       .  S
C847        C848   1.372       .  D
C848        C924   1.498       .  S
C848        C849   1.543       .  S
C849        C853   1.542       .  S
C849        C851   1.545       .  S
C849        H855   1.112       .  S
C850        H856   1.086       .  S
C850        C851   1.364       .  D
C851        C879   1.496       .  S
C852        H857   1.087       .  S
C852        C853   1.352       .  D
C853        C959   1.479       .  S
N858        H890   1.038       .  S
N858        C863   1.351       .  A
N858       C1223   1.353   1_554  A
N859        C866   1.351       .  A
N859       C2311   1.350   1_455  A
N860        H891   1.039       .  S
N860        C865   1.352       .  A
N860       C1225   1.350   1_554  A
N861        C868   1.351       .  A
N861       C2313   1.352   1_455  A
C862       N1219   1.352       .  A
C862        C870   1.381       .  A
C862        C878   1.406       .  A
C863        C879   1.409       .  A
C863        C871   1.382       .  A
C864       N1221   1.351       .  A
C864        C872   1.380       .  A
C864        C881   1.406       .  A
C865        C880   1.407       .  A
C865        C873   1.381       .  A
C866        C878   1.406       .  A
C866        C874   1.378       .  A
C867       N2303   1.350       .  A
C867        C881   1.406       .  A
C867        C875   1.380       .  A
C868        C876   1.378       .  A
C868        C879   1.410       .  A
C869       N2305   1.351       .  A
C869        C877   1.377       .  A
C869        C880   1.406       .  A
C870       C1232   1.380       .  A
C870        H882   1.082       .  S
C871       C1231   1.381   1_554  A
C871        H883   1.082       .  S
C872       C1234   1.380       .  A
C872        H884   1.082       .  S
C873       C1233   1.380   1_554  A
C873        H885   1.082       .  S
C874       C2319   1.374   1_455  A
C874        H886   1.081       .  S
C875       C2318   1.373       .  A
C875        H887   1.080       .  S
C876       C2321   1.376   1_455  A
C876        H888   1.081       .  S
C877       C2320   1.373       .  A
C877        H889   1.080       .  S
C892        C893   1.543       .  S
C892        C898   1.539       .  S
C892        C896   1.544       .  S
C892       C1080   1.503       .  S
C893        H900   1.086       .  S
C893        C894   1.364       .  D
C894        C960   1.489       .  S
C894        C895   1.544       .  S
C895        C899   1.543       .  S
C895        C897   1.544       .  S
C895        H901   1.111       .  S
C896        H902   1.086       .  S
C896        C897   1.363       .  D
C897        C993   1.496       .  S
C898        H903   1.086       .  S
C898        C899   1.359       .  D
C899        C927   1.487       .  S
N904        H936   1.039       .  S
N904       C2353   1.351   1_455  A
N904        C908   1.352       .  A
N905        C913   1.350       .  A
N906        H937   1.038       .  S
N906       C2355   1.352   1_455  A
N906        C910   1.348       .  A
N907        C915   1.348       .  A
C908        C916   1.381       .  A
C908        C924   1.406       .  A
C909       N2348   1.352       .  A
C909        C925   1.412       .  A
C909        C917   1.382       .  A
C910        C918   1.380       .  A
C910        C927   1.402       .  A
C911       N2350   1.352       .  A
C911        C926   1.406       .  A
C911        C919   1.380       .  A
C912        C924   1.407       .  A
C912        C920   1.378       .  A
C913        C927   1.408       .  A
C913        C921   1.380       .  A
C914        C922   1.379       .  A
C914        C925   1.408       .  A
C915        C923   1.377       .  A
C915        C926   1.401       .  A
C916       C2361   1.381   1_455  A
C916        H928   1.082       .  S
C917       C2360   1.383       .  A
C917        H929   1.082       .  S
C918       C2363   1.374   1_455  A
C918        H930   1.081       .  S
C919       C2362   1.379       .  A
C919        H931   1.082       .  S
C920        H932   1.081       .  S
C921        H933   1.080       .  S
C922        H934   1.081       .  S
C923        H935   1.080       .  S
C926       C1008   1.491       .  S
N938        H970   1.038       .  S
N938        C943   1.344       .  A
N938       C1303   1.350   1_554  A
N939        C947   1.348       .  A
N940        H971   1.041   1_556  S
N940        C945   1.348   1_556  A
N940       C1305   1.349       .  A
N941        C949   1.349       .  A
C942       N1299   1.350       .  A
C942        C950   1.379       .  A
C942        C958   1.399       .  A
C943        C959   1.399       .  A
C943        C951   1.382       .  A
C944       N1301   1.349       .  A
C944        C952   1.382       .  A
C944        C961   1.401       .  A
C945        C960   1.401       .  A
C945        C953   1.382       .  A
C946        C958   1.399       .  A
C946        C954   1.377       .  A
C947        C961   1.401       .  A
C947        C955   1.376       .  A
C948        C956   1.379       .  A
C948        C959   1.407       .  A
C949        C957   1.377       .  A
C949        C960   1.402       .  A
C950       C1312   1.376       .  A
C950        H962   1.082       .  S
C951       C1311   1.375   1_554  A
C951        H963   1.081       .  S
C952       C1314   1.379       .  A
C952        H964   1.082       .  S
C953       C1313   1.381   1_554  A
C953        H965   1.082       .  S
C954        H966   1.081       .  S
C955        H967   1.080       .  S
C956        H968   1.080       .  S
C957        H969   1.081       .  S
N972       H1004   1.040       .  S
N972        C977   1.352   1_655  A
N972       C2420   1.351       .  A
N973        C980   1.350       .  A
N973       C1342   1.348   1_554  A
N974       H1005   1.038       .  S
N974        C979   1.354   1_655  A
N974       C2422   1.355       .  A
N975        C982   1.352   1_556  A
N975       C1344   1.352       .  A
C976       N2416   1.353       .  A
C976        C984   1.381       .  A
C976        C992   1.411       .  A
C977        C993   1.409       .  A
C977        C985   1.383       .  A
C978       N2418   1.352       .  A
C978        C986   1.381       .  A
C978        C995   1.410       .  A
C979        C994   1.415       .  A
C979        C987   1.382       .  A
C980        C992   1.404       .  A
C980        C988   1.378       .  A
C981       N1334   1.351       .  A
C981        C995   1.410       .  A
C981        C989   1.379       .  A
C982        C990   1.377       .  A
C982        C993   1.407       .  A
C983       N1336   1.350       .  A
C983        C991   1.379       .  A
C983        C994   1.408       .  A
C984       C2429   1.381       .  A
C984        H996   1.082       .  S
C985       C2428   1.380   1_455  A
C985        H997   1.082       .  S
C986       C2431   1.380       .  A
C986        H998   1.082       .  S
C987       C2430   1.383   1_455  A
C987        H999   1.082       .  S
C988       C1350   1.371   1_554  A
C988       H1000   1.080       .  S
C989       C1349   1.374       .  A
C989       H1001   1.080       .  S
C990       C1352   1.372   1_554  A
C990       H1002   1.080       .  S
C991       C1351   1.372       .  A
C991       H1003   1.080       .  S
C992       C1011   1.494       .  S
C1006      C1007   1.547       .  S
C1006      C1012   1.543       .  S
C1006      C1010   1.543       .  S
C1006      C1077   1.513       .  S
C1007      H1014   1.086       .  S
C1007      C1008   1.364       .  D
C1008      C1009   1.539       .  S
C1009      C1013   1.550       .  S
C1009      C1011   1.543       .  S
C1009      H1015   1.111       .  S
C1010      H1016   1.086       .  S
C1010      C1011   1.364       .  D
C1012      H1017   1.086       .  S
C1012      C1013   1.364       .  D
C1013      C1038   1.498       .  S
N1018      H1050   1.040       .  S
N1018      C1384   1.352   1_554  A
N1018      C1022   1.350       .  A
N1019      C1027   1.351       .  A
N1020      H1051   1.037       .  S
N1020      C1386   1.354   1_554  A
N1020      C1024   1.354       .  A
N1021      C1029   1.349       .  A
C1022      C1030   1.382       .  A
C1022      C1038   1.405       .  A
C1023      N1379   1.349       .  A
C1023      C1039   1.403       .  A
C1023      C1031   1.382       .  A
C1024      C1032   1.381       .  A
C1024      C1041   1.414       .  A
C1025      N1381   1.352       .  A
C1025      C1040   1.414       .  A
C1025      C1033   1.382       .  A
C1026      C1038   1.411       .  A
C1026      C1034   1.379       .  A
C1027      C1041   1.409       .  A
C1027      C1035   1.379       .  A
C1028      C1036   1.378       .  A
C1028      C1039   1.405       .  A
C1029      C1037   1.379       .  A
C1029      C1040   1.408       .  A
C1030      C1392   1.380   1_554  A
C1030      H1042   1.082       .  S
C1031      C1391   1.379       .  A
C1031      H1043   1.082       .  S
C1032      C1394   1.382   1_554  A
C1032      H1044   1.082       .  S
C1033      C1393   1.384       .  A
C1033      H1045   1.082       .  S
C1034      H1046   1.081       .  S
C1035      H1047   1.081       .  S
C1036      H1048   1.081       .  S
C1037      H1049   1.081       .  S
C1052      H1054   1.087       .  S
C1052      C1053   1.342       .  D
C1053      H1055   1.088       .  S
C1056      H1058   1.086       .  S
C1056      C1057   1.346       .  D
C1057      H1059   1.087       .  S
C1060      H1062   1.086       .  S
C1060      C1061   1.343       .  D
C1061      H1063   1.088       .  S
C1064      H1066   1.086       .  S
C1064      C1065   1.350       .  D
C1065      H1067   1.087       .  S
C1068      H1070   1.086       .  S
C1068      C1069   1.349       .  D
C1069      H1071   1.088       .  S
C1072      H1074   1.087       .  S
C1072      C1073   1.333       .  D
C1073      H1075   1.088       .  S
C1076      H1078   1.086       .  S
C1076      C1077   1.350       .  D
C1077      H1079   1.087       .  S
C1080      H1082   1.088       .  S
C1080      C1081   1.340       .  D
C1081      H1083   1.086       .  S
O1084      C1092   1.270       .  A
O1084     Co1104   1.893       .  S
O1085      C1093   1.253       .  A
O1085     Co1105   1.950       .  S
O1086      C1094   1.262       .  A
O1086     Co1106   2.014       .  S
O1087      C1095   1.280       .  A
O1087     Co1107   2.040       .  S
O1088      C1094   1.256       .  A
O1088     Co1105   1.965       .  S
O1089      C1095   1.269       .  A
O1089     Co1104   1.981       .  S
O1090      C1093   1.276       .  A
O1090     Co1107   2.040       .  S
O1091      C1092   1.287       .  A
O1091     Co1106   2.086       .  S
C1092      C1433   1.467       .  S
C1093      C1413   1.466       .  S
C1094      C1421   1.475       .  S
C1095      C1425   1.493       .  S
O1096      C1109   1.266       .  A
O1096     Co1104   2.018       .  S
O1097      C1110   1.280       .  A
O1097     Co1105   2.039       .  S
O1098      C1111   1.269       .  A
O1098     Co1106   1.897       .  S
O1099      C1112   1.258       .  A
O1099     Co1107   1.966       .  S
O1100      C1112   1.276       .  A
O1100     Co1105   2.037       .  S
O1101      C1111   1.288       .  A
O1101     Co1104   2.085       .  S
O1102      C1109   1.262       .  A
O1102     Co1107   1.976       .  S
O1103      C1110   1.268       .  A
O1103     Co1106   1.977       .  S
Co1104     O1108   2.002       .  S
Co1105     O1108   2.022       .  S
Co1106     O1108   2.009       .  S
Co1107     O1108   2.031       .  S
C1109      C1437   1.485       .  S
C1110      C1429   1.485       .  S
C1111      C1442   1.465       .  S
C1112      C1417   1.477       .  S
C1113      C1114   1.539       .  S
C1113      C1119   1.554       .  S
C1113      C1117   1.538       .  S
C1113      C1414   1.510       .  S
C1114      H1121   1.086       .  S
C1114      C1115   1.359       .  D
C1115      C1182   1.489       .  S
C1115      C1116   1.546       .  S
C1116      C1120   1.540       .  S
C1116      C1118   1.543       .  S
C1116      H1122   1.112       .  S
C1117      H1123   1.086       .  S
C1117      C1118   1.359       .  D
C1118      C1242   1.486       .  S
C1119      H1124   1.085       .  S
C1119      C1120   1.372       .  D
C1120      C1401   1.500       .  S
C1125      C1126   1.543       .  S
C1125      C1131   1.551       .  S
C1125      C1129   1.541       .  S
C1125      C1418   1.517       .  S
C1126      H1133   1.086       .  S
C1126      C1127   1.364       .  D
C1127      C1400   1.497       .  S
C1127      C1128   1.548       .  S
C1128      C1132   1.543       .  S
C1128      C1130   1.541       .  S
C1128      H1134   1.111       .  S
C1129      H1135   1.086       .  S
C1129      C1130   1.360       .  D
C1130      C1356   1.488       .  S
C1131      H1136   1.085       .  S
C1131      C1132   1.370       .  D
C1132      C1183   1.502       .  S
C1137      C1138   1.543       .  S
C1137      C1143   1.541       .  S
C1137      C1141   1.543       .  S
C1137      C1422   1.504       .  S
C1138      H1145   1.086       .  S
C1138      C1139   1.360       .  D
C1139      C1319   1.485       .  S
C1139      C1140   1.538       .  S
C1140      C1144   1.547       .  S
C1140      C1142   1.545       .  S
C1140      H1146   1.112       .  S
C1141      H1147   1.086       .  S
C1141      C1142   1.364       .  D
C1142      C1239   1.494       .  S
C1143      H1148   1.086       .  S
C1143      C1144   1.363       .  D
C1144      C1181   1.492       .  S
C1149      C1150   1.552       .  S
C1149      C1155   1.538       .  S
C1149      C1153   1.551       .  S
C1149      C1430   1.521       .  S
C1150      H1157   1.085       .  S
C1150      C1151   1.373       .  D
C1151      C1184   1.503       .  S
C1151      C1152   1.544       .  S
C1152      C1156   1.545       .  S
C1152      C1154   1.541       .  S
C1152      H1158   1.112       .  S
C1153      H1159   1.086       .  S
C1153      C1154   1.365       .  D
C1154      C1355   1.500       .  S
C1155      H1160   1.086       .  S
C1155      C1156   1.360       .  D
C1156      C1322   1.489       .  S
N1161      H1193   1.040       .  S
N1161      C2610   1.349   1_455  A
N1161      C1165   1.349       .  A
N1162      C1170   1.352       .  A
N1163      H1194   1.036       .  S
N1163      C2612   1.350   1_455  A
N1163      C1167   1.353       .  A
N1164      C1172   1.352       .  A
C1165      C1173   1.381       .  A
C1165      C1181   1.399       .  A
C1166      N2605   1.347       .  A
C1166      C1182   1.397       .  A
C1166      C1174   1.381       .  A
C1167      C1175   1.380       .  A
C1167      C1184   1.410       .  A
C1168      N2607   1.353       .  A
C1168      C1183   1.416       .  A
C1168      C1176   1.381       .  A
C1169      C1181   1.406       .  A
C1169      C1177   1.378       .  A
C1170      C1184   1.411       .  A
C1170      C1178   1.379       .  A
C1171      C1179   1.377       .  A
C1171      C1182   1.404       .  A
C1172      C1180   1.379       .  A
C1172      C1183   1.414       .  A
C1173      C2618   1.378   1_455  A
C1173      H1185   1.082       .  S
C1174      C2617   1.377       .  A
C1174      H1186   1.082       .  S
C1175      C2620   1.380   1_455  A
C1175      H1187   1.082       .  S
C1176      C2619   1.382       .  A
C1176      H1188   1.082       .  S
C1177      H1189   1.081       .  S
C1178      H1190   1.082       .  S
C1179      H1191   1.081       .  S
C1180      H1192   1.081       .  S
C1195      C1196   1.552       .  S
C1195      C1201   1.546       .  S
C1195      C1199   1.547       .  S
C1195      C1426   1.527       .  S
C1196      H1203   1.085       .  S
C1196      C1197   1.372       .  D
C1197      C1402   1.502       .  S
C1197      C1198   1.544       .  S
C1198      C1202   1.549       .  S
C1198      C1200   1.536       .  S
C1198      H1204   1.112       .  S
C1199      H1205   1.086       .  S
C1199      C1200   1.361       .  D
C1200      C1241   1.490       .  S
C1201      H1206   1.086       .  S
C1201      C1202   1.367       .  D
C1202      C1286   1.504       .  S
C1207      C1208   1.557       .  S
C1207      C1213   1.529       .  S
C1207      C1211   1.540       .  S
C1207      C1434   1.502       .  S
C1208      H1215   1.083       .  S
C1208      C1209   1.371       .  D
C1209      C1285   1.500       .  S
C1209      C1210   1.545       .  S
C1210      C1214   1.539       .  S
C1210      C1212   1.543       .  S
C1210      H1216   1.112       .  S
C1211      H1217   1.086       .  S
C1211      C1212   1.360       .  D
C1212      C1240   1.492       .  S
C1213      H1218   1.087       .  S
C1213      C1214   1.352       .  D
C1214      C1320   1.473       .  S
N1219      H1251   1.040       .  S
N1219      C1224   1.351       .  A
N1220      C1227   1.350       .  A
N1220      C2672   1.348   1_455  A
N1221      H1252   1.038       .  S
N1221      C1226   1.353       .  A
N1222      C1229   1.350       .  A
N1222      C2674   1.351   1_455  A
C1223      C1231   1.381       .  A
C1223      C1239   1.410       .  A
C1224      C1240   1.408       .  A
C1224      C1232   1.382       .  A
C1225      C1233   1.381       .  A
C1225      C1242   1.406       .  A
C1226      C1241   1.409       .  A
C1226      C1234   1.381       .  A
C1227      C1239   1.403       .  A
C1227      C1235   1.377       .  A
C1228      N2664   1.348       .  A
C1228      C1242   1.404       .  A
C1228      C1236   1.379       .  A
C1229      C1237   1.378       .  A
C1229      C1240   1.405       .  A
C1230      N2666   1.348       .  A
C1230      C1238   1.378       .  A
C1230      C1241   1.402       .  A
C1231      H1243   1.082       .  S
C1232      H1244   1.081       .  S
C1233      H1245   1.082       .  S
C1234      H1246   1.082       .  S
C1235      C2680   1.371   1_455  A
C1235      H1247   1.080       .  S
C1236      C2679   1.372       .  A
C1236      H1248   1.080       .  S
C1237      C2682   1.372   1_455  A
C1237      H1249   1.080       .  S
C1238      C2681   1.371       .  A
C1238      H1250   1.080       .  S
C1253      C1254   1.556       .  S
C1253      C1259   1.533       .  S
C1253      C1257   1.540       .  S
C1253      C1441   1.507       .  S
C1254      H1261   1.083       .  S
C1254      C1255   1.365       .  D
C1255      C1321   1.493       .  S
C1255      C1256   1.542       .  S
C1256      C1260   1.539       .  S
C1256      C1258   1.546       .  S
C1256      H1262   1.111       .  S
C1257      H1263   1.086       .  S
C1257      C1258   1.361       .  D
C1258      C1354   1.496       .  S
C1259      H1264   1.087       .  S
C1259      C1260   1.356       .  D
C1260      C1288   1.476       .  S
N1265      H1297   1.041       .  S
N1265      C2714   1.352   1_455  A
N1265      C1269   1.351       .  A
N1266      C1274   1.346       .  A
N1267      H1298   1.038       .  S
N1267      C2716   1.349       .  A
N1267      C1271   1.346   1_655  A
N1268      C1276   1.346       .  A
C1269      C1277   1.381       .  A
C1269      C1285   1.405       .  A
C1270      N2709   1.354       .  A
C1270      C1286   1.412       .  A
C1270      C1278   1.382       .  A
C1271      C1279   1.381       .  A
C1271      C1288   1.398       .  A
C1272      N2711   1.350       .  A
C1272      C1287   1.401       .  A
C1272      C1280   1.379       .  A
C1273      C1285   1.410       .  A
C1273      C1281   1.378       .  A
C1274      C1288   1.403       .  A
C1274      C1282   1.379       .  A
C1275      C1283   1.377       .  A
C1275      C1286   1.406       .  A
C1276      C1284   1.380       .  A
C1276      C1287   1.402       .  A
C1277      C2722   1.381   1_455  A
C1277      H1289   1.082       .  S
C1278      C2721   1.383       .  A
C1278      H1290   1.082       .  S
C1279      C2724   1.374   1_455  A
C1279      H1291   1.081       .  S
C1280      C2723   1.373       .  A
C1280      H1292   1.081       .  S
C1281      H1293   1.081       .  S
C1282      H1294   1.080       .  S
C1283      H1295   1.081       .  S
C1284      H1296   1.080       .  S
C1287      C1369   1.485       .  S
N1299      H1331   1.038       .  S
N1299      C1304   1.343       .  A
N1300      C1308   1.348       .  A
N1301      H1332   1.041       .  S
N1301      C1306   1.348       .  A
N1302      C1310   1.350       .  A
C1303      C1311   1.380       .  A
C1303      C1319   1.400       .  A
C1304      C1320   1.398       .  A
C1304      C1312   1.382       .  A
C1305      C1313   1.383       .  A
C1305      C1322   1.403       .  A
C1306      C1321   1.399       .  A
C1306      C1314   1.381       .  A
C1307      C1319   1.400       .  A
C1307      C1315   1.376       .  A
C1308      C1322   1.399       .  A
C1308      C1316   1.376       .  A
C1309      C1317   1.379       .  A
C1309      C1320   1.402       .  A
C1310      C1318   1.377       .  A
C1310      C1321   1.408       .  A
C1311      H1323   1.081       .  S
C1312      H1324   1.082       .  S
C1313      H1325   1.082       .  S
C1314      H1326   1.082       .  S
C1315      H1327   1.080       .  S
C1316      H1328   1.080       .  S
C1317      H1329   1.081       .  S
C1318      H1330   1.081       .  S
N1333      H1365   1.039       .  S
N1333      C1338   1.352   1_655  A
N1333      C2781   1.350       .  A
N1334      C1341   1.352       .  A
N1335      H1366   1.039       .  S
N1335      C1340   1.353   1_655  A
N1335      C2783   1.352       .  A
N1336      C1343   1.352       .  A
C1337      N2777   1.352       .  A
C1337      C1345   1.382       .  A
C1337      C1353   1.409       .  A
C1338      C1354   1.409       .  A
C1338      C1346   1.382       .  A
C1339      N2779   1.351       .  A
C1339      C1347   1.381       .  A
C1339      C1356   1.407       .  A
C1340      C1355   1.411       .  A
C1340      C1348   1.382       .  A
C1341      C1353   1.407       .  A
C1341      C1349   1.378       .  A
C1342      C1356   1.404       .  A
C1342      C1350   1.378       .  A
C1343      C1351   1.377       .  A
C1343      C1354   1.406       .  A
C1344      C1352   1.377       .  A
C1344      C1355   1.409       .  A
C1345      C2790   1.381       .  A
C1345      H1357   1.082       .  S
C1346      C2789   1.380   1_455  A
C1346      H1358   1.081       .  S
C1347      C2792   1.380       .  A
C1347      H1359   1.082       .  S
C1348      C2791   1.381   1_455  A
C1348      H1360   1.082       .  S
C1349      H1361   1.081       .  S
C1350      H1362   1.080       .  S
C1351      H1363   1.080       .  S
C1352      H1364   1.080       .  S
C1353      C1372   1.497       .  S
C1367      C1368   1.540       .  S
C1367      C1373   1.547       .  S
C1367      C1371   1.547       .  S
C1367      C1438   1.514       .  S
C1368      H1375   1.087       .  S
C1368      C1369   1.355       .  D
C1369      C1370   1.538       .  S
C1370      C1374   1.544       .  S
C1370      C1372   1.544       .  S
C1370      H1376   1.112       .  S
C1371      H1377   1.086       .  S
C1371      C1372   1.367       .  D
C1373      H1378   1.085       .  S
C1373      C1374   1.371       .  D
C1374      C1399   1.497       .  S
N1379      H1411   1.040       .  S
N1379      C1383   1.351       .  A
N1380      C1388   1.350       .  A
N1381      H1412   1.036       .  S
N1381      C1385   1.355       .  A
N1382      C1390   1.351       .  A
C1383      C1391   1.380       .  A
C1383      C1399   1.402       .  A
C1384      C1400   1.406       .  A
C1384      C1392   1.381       .  A
C1385      C1393   1.381       .  A
C1385      C1402   1.415       .  A
C1386      C1401   1.414       .  A
C1386      C1394   1.381       .  A
C1387      C1399   1.408       .  A
C1387      C1395   1.377       .  A
C1388      C1402   1.405       .  A
C1388      C1396   1.378       .  A
C1389      C1397   1.377       .  A
C1389      C1400   1.403       .  A
C1390      C1398   1.378       .  A
C1390      C1401   1.409       .  A
C1391      H1403   1.082       .  S
C1392      H1404   1.082       .  S
C1393      H1405   1.082       .  S
C1394      H1406   1.082       .  S
C1395      H1407   1.081       .  S
C1396      H1408   1.081       .  S
C1397      H1409   1.081       .  S
C1398      H1410   1.081       .  S
C1413      H1415   1.087       .  S
C1413      C1414   1.338       .  D
C1414      H1416   1.088       .  S
C1417      H1419   1.087       .  S
C1417      C1418   1.342       .  D
C1418      H1420   1.088       .  S
C1421      H1423   1.086       .  S
C1421      C1422   1.345       .  D
C1422      H1424   1.087       .  S
C1425      H1427   1.086       .  S
C1425      C1426   1.352       .  D
C1426      H1428   1.087       .  S
C1429      H1431   1.086       .  S
C1429      C1430   1.352       .  D
C1430      H1432   1.088       .  S
C1433      H1435   1.083       .  S
C1433      C1434   1.334       .  D
C1434      H1436   1.088       .  S
C1437      H1439   1.086       .  S
C1437      C1438   1.345       .  D
C1438      H1440   1.087       .  S
C1441      H1443   1.088       .  S
C1441      C1442   1.336       .  D
C1442      H1444   1.081       .  S
O1445      C1453   1.264       .  A
O1445     Co1465   1.905       .  S
O1446      C1454   1.255       .  A
O1446     Co1466   1.958       .  S
O1447      C1455   1.257       .  A
O1447     Co1467   1.996       .  S
O1448      C1456   1.279       .  A
O1448     Co1468   2.019       .  S
O1449      C1455   1.254       .  A
O1449     Co1466   1.955       .  S
O1450      C1456   1.268       .  A
O1450     Co1465   1.978       .  S
O1451      C1454   1.274       .  A
O1451     Co1468   2.034       .  S
O1452      C1453   1.292       .  A
O1452     Co1467   2.101       .  S
C1453      C1794   1.470       .  S
C1454      C1774   1.471       .  S
C1455      C1782   1.461       .  S
C1456      C1786   1.476       .  S
O1457      C1470   1.261       .  A
O1457     Co1465   2.000       .  S
O1458      C1471   1.275       .  A
O1458     Co1466   2.007       .  S
O1459      C1472   1.266       .  A
O1459     Co1467   1.909       .  S
O1460      C1473   1.265       .  A
O1460     Co1468   1.969       .  S
O1461      C1473   1.275       .  A
O1461     Co1466   2.033       .  S
O1462      C1472   1.293       .  A
O1462     Co1465   2.102       .  S
O1463      C1470   1.261       .  A
O1463     Co1468   1.976       .  S
O1464      C1471   1.274       .  A
O1464     Co1467   1.971       .  S
Co1465     O1469   2.010       .  S
Co1466     O1469   2.015       .  S
Co1467     O1469   2.024       .  S
Co1468     O1469   2.030       .  S
C1470      C1798   1.474       .  S
C1471      C1790   1.463       .  S
C1472      C1803   1.475       .  S
C1473      C1778   1.487       .  S
C1474      C1475   1.541       .  S
C1474      C1480   1.550       .  S
C1474      C1478   1.541       .  S
C1474      C1775   1.511       .  S
C1475      H1482   1.086       .  S
C1475      C1476   1.363       .  D
C1476      C1543   1.490       .  S
C1476      C1477   1.544       .  S
C1477      C1481   1.543       .  S
C1477      C1479   1.542       .  S
C1477      H1483   1.112       .  S
C1478      H1484   1.086       .  S
C1478      C1479   1.360       .  D
C1479      C1603   1.491       .  S
C1480      H1485   1.086       .  S
C1480      C1481   1.368       .  D
C1481      C1762   1.497       .  S
C1486      C1487   1.549       .  S
C1486      C1492   1.542       .  S
C1486      C1490   1.548       .  S
C1486      C1779   1.518       .  S
C1487      H1494   1.086       .  S
C1487      C1488   1.370       .  D
C1488      C1761   1.507       .  S
C1488      C1489   1.550       .  S
C1489      C1493   1.537       .  S
C1489      C1491   1.543       .  S
C1489      H1495   1.112       .  S
C1490      H1496   1.086       .  S
C1490      C1491   1.367       .  D
C1491      C1717   1.498       .  S
C1492      H1497   1.086       .  S
C1492      C1493   1.357       .  D
C1493      C1544   1.483       .  S
C1498      C1499   1.543       .  S
C1498      C1504   1.533       .  S
C1498      C1502   1.543       .  S
C1498      C1783   1.495       .  S
C1499      H1506   1.086       .  S
C1499      C1500   1.364       .  D
C1500      C1680   1.487       .  S
C1500      C1501   1.541       .  S
C1501      C1505   1.544       .  S
C1501      C1503   1.544       .  S
C1501      H1507   1.111       .  S
C1502      H1508   1.086       .  S
C1502      C1503   1.364       .  D
C1503      C1600   1.491       .  S
C1504      H1509   1.087       .  S
C1504      C1505   1.352       .  D
C1505      C1542   1.480       .  S
C1510      C1511   1.535       .  S
C1510      C1516   1.541       .  S
C1510      C1514   1.550       .  S
C1510      C1791   1.503       .  S
C1511      H1518   1.086       .  S
C1511      C1512   1.358       .  D
C1512      C1545   1.481       .  S
C1512      C1513   1.543       .  S
C1513      C1517   1.548       .  S
C1513      C1515   1.540       .  S
C1513      H1519   1.111       .  S
C1514      H1520   1.086       .  S
C1514      C1515   1.367       .  D
C1515      C1716   1.496       .  S
C1516      H1521   1.086       .  S
C1516      C1517   1.360       .  D
C1517      C1683   1.490       .  S
N1522      H1554   1.040       .  S
N1522      C1526   1.347       .  A
N1523      C2252   1.345       .  A
N1523      C1531   1.346   1_565  A
N1524      H1555   1.037       .  S
N1524      C1528   1.349       .  A
N1525      C2254   1.346       .  A
N1525      C1533   1.345   1_565  A
C1526      C1534   1.381       .  A
C1526      C1542   1.397       .  A
C1527      C1543   1.400       .  A
C1527      C1535   1.382       .  A
C1528      C1536   1.381       .  A
C1528      C1545   1.404       .  A
C1529      C1544   1.406       .  A
C1529      C1537   1.380       .  A
C1530      N2245   1.346       .  A
C1530      C1542   1.400       .  A
C1530      C1538   1.378       .  A
C1531      C1545   1.400       .  A
C1531      C1539   1.378       .  A
C1532      N2247   1.349       .  A
C1532      C1540   1.375       .  A
C1532      C1543   1.398       .  A
C1533      C1541   1.380       .  A
C1533      C1544   1.400       .  A
C1534      H1546   1.082       .  S
C1535      H1547   1.082       .  S
C1536      H1548   1.082       .  S
C1537      H1549   1.082       .  S
C1538      C2261   1.374       .  A
C1538      H1550   1.080       .  S
C1539      C2260   1.372   1_545  A
C1539      H1551   1.081       .  S
C1540      C2263   1.372       .  A
C1540      H1552   1.080       .  S
C1541      C2262   1.375   1_545  A
C1541      H1553   1.081       .  S
C1556      C1557   1.547       .  S
C1556      C1562   1.543       .  S
C1556      C1560   1.542       .  S
C1556      C1787   1.509       .  S
C1557      H1564   1.086       .  S
C1557      C1558   1.368       .  D
C1558      C1763   1.500       .  S
C1558      C1559   1.546       .  S
C1559      C1563   1.547       .  S
C1559      C1561   1.539       .  S
C1559      H1565   1.111       .  S
C1560      H1566   1.086       .  S
C1560      C1561   1.357       .  D
C1561      C1602   1.485       .  S
C1562      H1567   1.086       .  S
C1562      C1563   1.365       .  D
C1563      C1647   1.494       .  S
C1568      C1569   1.546       .  S
C1568      C1574   1.541       .  S
C1568      C1572   1.547       .  S
C1568      C1795   1.512       .  S
C1569      H1576   1.086       .  S
C1569      C1570   1.364       .  D
C1570      C1646   1.491       .  S
C1570      C1571   1.543       .  S
C1571      C1575   1.543       .  S
C1571      C1573   1.543       .  S
C1571      H1577   1.112       .  S
C1572      H1578   1.086       .  S
C1572      C1573   1.365       .  D
C1573      C1601   1.494       .  S
C1574      H1579   1.086       .  S
C1574      C1575   1.362       .  D
C1575      C1681   1.493       .  S
N1580      H1612   1.040       .  S
N1580      C1585   1.350   1_556  A
N1580      C1945   1.351       .  A
N1581      C1588   1.349       .  A
N1582      H1613   1.039       .  S
N1582      C1587   1.348       .  A
N1582      C1947   1.350   1_554  A
N1583      C1590   1.352       .  A
C1584      N1941   1.352       .  A
C1584      C1592   1.381       .  A
C1584      C1600   1.409       .  A
C1585      C1601   1.404       .  A
C1585      C1593   1.381       .  A
C1586      N1943   1.351       .  A
C1586      C1594   1.381       .  A
C1586      C1603   1.407       .  A
C1587      C1602   1.405       .  A
C1587      C1595   1.383       .  A
C1588      C1600   1.405       .  A
C1588      C1596   1.379       .  A
C1589      C1603   1.406       .  A
C1589      C1597   1.378       .  A
C1590      C1598   1.378       .  A
C1590      C1601   1.410       .  A
C1591      C1599   1.378       .  A
C1591      C1602   1.405       .  A
C1592      C1954   1.382       .  A
C1592      H1604   1.082       .  S
C1593      C1953   1.379   1_554  A
C1593      H1605   1.082       .  S
C1594      C1956   1.379       .  A
C1594      H1606   1.081       .  S
C1595      C1955   1.381   1_554  A
C1595      H1607   1.082       .  S
C1596      H1608   1.081       .  S
C1597      H1609   1.080       .  S
C1598      H1610   1.081       .  S
C1599      H1611   1.080       .  S
C1614      C1615   1.546       .  S
C1614      C1620   1.541       .  S
C1614      C1618   1.549       .  S
C1614      C1802   1.516       .  S
C1615      H1622   1.086       .  S
C1615      C1616   1.366       .  D
C1616      C1682   1.491       .  S
C1616      C1617   1.544       .  S
C1617      C1621   1.547       .  S
C1617      C1619   1.543       .  S
C1617      H1623   1.111       .  S
C1618      H1624   1.086       .  S
C1618      C1619   1.366       .  D
C1619      C1715   1.499       .  S
C1620      H1625   1.086       .  S
C1620      C1621   1.362       .  D
C1621      C1649   1.497       .  S
N1626      H1658   1.040       .  S
N1626      C1630   1.350       .  A
N1627      C2356   1.354   1_545  A
N1627      C1635   1.352       .  A
N1628      H1659   1.036       .  S
N1628      C1632   1.351       .  A
N1629      C2358   1.347       .  A
N1629      C1637   1.347   1_565  A
C1630      C1638   1.380       .  A
C1630      C1646   1.400       .  A
C1631      C1647   1.411       .  A
C1631      C1639   1.383       .  A
C1632      C1640   1.382       .  A
C1632      C1649   1.412       .  A
C1633      C1648   1.400       .  A
C1633      C1641   1.380       .  A
C1634      N2349   1.349       .  A
C1634      C1646   1.403       .  A
C1634      C1642   1.378       .  A
C1635      C1649   1.414       .  A
C1635      C1643   1.380       .  A
C1636      N2351   1.347       .  A
C1636      C1644   1.378       .  A
C1636      C1647   1.401       .  A
C1637      C1645   1.378       .  A
C1637      C1648   1.400       .  A
C1638      H1650   1.082       .  S
C1639      H1651   1.082       .  S
C1640      H1652   1.081       .  S
C1641      H1653   1.082       .  S
C1642      C2365   1.376       .  A
C1642      H1654   1.081       .  S
C1643      C2364   1.378   1_545  A
C1643      H1655   1.080       .  S
C1644      C2367   1.374       .  A
C1644      H1656   1.081       .  S
C1645      C2366   1.372   1_545  A
C1645      H1657   1.080       .  S
C1648      C1730   1.484       .  S
N1660      H1692   1.037       .  S
N1660      C1665   1.351   1_556  A
N1660      C2025   1.352       .  A
N1661      C2390   1.348       .  A
N1661      C1669   1.347   1_565  A
N1662      H1693   1.040       .  S
N1662      C1667   1.351       .  A
N1662      C2027   1.348   1_554  A
N1663      C2392   1.347   1_545  A
N1663      C1671   1.348       .  A
C1664      N2021   1.350       .  A
C1664      C1672   1.379       .  A
C1664      C1680   1.403       .  A
C1665      C1681   1.409       .  A
C1665      C1673   1.382       .  A
C1666      N2023   1.349       .  A
C1666      C1674   1.382       .  A
C1666      C1683   1.405       .  A
C1667      C1682   1.403       .  A
C1667      C1675   1.380       .  A
C1668      N2383   1.348       .  A
C1668      C1680   1.405       .  A
C1668      C1676   1.379       .  A
C1669      C1683   1.402       .  A
C1669      C1677   1.378       .  A
C1670      N2385   1.350       .  A
C1670      C1678   1.379       .  A
C1670      C1681   1.409       .  A
C1671      C1679   1.377       .  A
C1671      C1682   1.400       .  A
C1672      C2034   1.376       .  A
C1672      H1684   1.082       .  S
C1673      C2033   1.379   1_554  A
C1673      H1685   1.081       .  S
C1674      C2036   1.382       .  A
C1674      H1686   1.082       .  S
C1675      C2035   1.380   1_554  A
C1675      H1687   1.082       .  S
C1676      C2399   1.376       .  A
C1676      H1688   1.081       .  S
C1677      C2398   1.376   1_545  A
C1677      H1689   1.081       .  S
C1678      C2401   1.375       .  A
C1678      H1690   1.080       .  S
C1679      C2400   1.375   1_545  A
C1679      H1691   1.081       .  S
N1694      H1726   1.041       .  S
N1694      C1699   1.352       .  A
N1695      C1702   1.351       .  A
N1695      C2064   1.351   1_554  A
N1696      H1727   1.038       .  S
N1696      C1701   1.353       .  A
N1697      C1704   1.354   1_556  A
N1697      C2066   1.351       .  A
C1698      C1706   1.381       .  A
C1698      C1714   1.408       .  A
C1699      C1715   1.402       .  A
C1699      C1707   1.380       .  A
C1700      C1708   1.381       .  A
C1700      C1717   1.415       .  A
C1701      C1716   1.411       .  A
C1701      C1709   1.381       .  A
C1702      C1714   1.408       .  A
C1702      C1710   1.378       .  A
C1703      N2056   1.350       .  A
C1703      C1717   1.402       .  A
C1703      C1711   1.378       .  A
C1704      C1712   1.377       .  A
C1704      C1715   1.409       .  A
C1705      N2058   1.351       .  A
C1705      C1713   1.378       .  A
C1705      C1716   1.407       .  A
C1706      H1718   1.082       .  S
C1707      H1719   1.082       .  S
C1708      H1720   1.082       .  S
C1709      H1721   1.082       .  S
C1710      C2072   1.374   1_554  A
C1710      H1722   1.080       .  S
C1711      C2071   1.369       .  A
C1711      H1723   1.081       .  S
C1712      C2074   1.376   1_554  A
C1712      H1724   1.080       .  S
C1713      C2073   1.374       .  A
C1713      H1725   1.080       .  S
C1714      C1733   1.496       .  S
C1728      C1729   1.539       .  S
C1728      C1734   1.543       .  S
C1728      C1732   1.546       .  S
C1728      C1799   1.505       .  S
C1729      H1736   1.086       .  S
C1729      C1730   1.357       .  D
C1730      C1731   1.541       .  S
C1731      C1735   1.546       .  S
C1731      C1733   1.542       .  S
C1731      H1737   1.111       .  S
C1732      H1738   1.086       .  S
C1732      C1733   1.366       .  D
C1734      H1739   1.086       .  S
C1734      C1735   1.365       .  D
C1735      C1760   1.492       .  S
N1740      H1772   1.040       .  S
N1740      C2106   1.351   1_554  A
N1740      C1744   1.350       .  A
N1741      C2470   1.348       .  A
N1741      C1749   1.351       .  A
N1742      H1773   1.047       .  S
N1742      C2108   1.349   1_554  A
N1742      C1746   1.352       .  A
N1743      C2472   1.350       .  A
N1743      C1751   1.351       .  A
C1744      C1752   1.381       .  A
C1744      C1760   1.404       .  A
C1745      N2101   1.354       .  A
C1745      C1761   1.408       .  A
C1745      C1753   1.382       .  A
C1746      C1754   1.380       .  A
C1746      C1763   1.411       .  A
C1747      N2103   1.352       .  A
C1747      C1762   1.406       .  A
C1747      C1755   1.380       .  A
C1748      N2463   1.349   1_545  A
C1748      C1760   1.405       .  A
C1748      C1756   1.378       .  A
C1749      C1763   1.408       .  A
C1749      C1757   1.379       .  A
C1750      N2465   1.353   1_545  A
C1750      C1758   1.377       .  A
C1750      C1761   1.411       .  A
C1751      C1759   1.380       .  A
C1751      C1762   1.410       .  A
C1752      C2114   1.379   1_554  A
C1752      H1764   1.082       .  S
C1753      C2113   1.381       .  A
C1753      H1765   1.082       .  S
C1754      C2116   1.379   1_554  A
C1754      H1766   1.081       .  S
C1755      C2115   1.379       .  A
C1755      H1767   1.082       .  S
C1756      C2479   1.377   1_545  A
C1756      H1768   1.081       .  S
C1757      C2478   1.376       .  A
C1757      H1769   1.080       .  S
C1758      C2481   1.378   1_545  A
C1758      H1770   1.081       .  S
C1759      C2480   1.379       .  A
C1759      H1771   1.081       .  S
C1774      H1776   1.087       .  S
C1774      C1775   1.341       .  D
C1775      H1777   1.088       .  S
C1778      H1780   1.086       .  S
C1778      C1779   1.347       .  D
C1779      H1781   1.087       .  S
C1782      H1784   1.087       .  S
C1782      C1783   1.344       .  D
C1783      H1785   1.087       .  S
C1786      H1788   1.086       .  S
C1786      C1787   1.344       .  D
C1787      H1789   1.088       .  S
C1790      H1792   1.087       .  S
C1790      C1791   1.336       .  D
C1791      H1793   1.087       .  S
C1794      H1796   1.086       .  S
C1794      C1795   1.345       .  D
C1795      H1797   1.087       .  S
C1798      H1800   1.087       .  S
C1798      C1799   1.341       .  D
C1799      H1801   1.087       .  S
C1802      H1804   1.087       .  S
C1802      C1803   1.347       .  D
C1803      H1805   1.086       .  S
O1806      C1814   1.270       .  A
O1806     Co1826   1.979       .  S
O1807      C1815   1.265       .  A
O1807     Co1827   1.896       .  S
O1808      C1816   1.281       .  A
O1808     Co1828   2.024       .  S
O1809      C1817   1.260       .  A
O1809     Co1829   1.999       .  S
O1810      C1816   1.269       .  A
O1810     Co1827   1.977       .  S
O1811      C1817   1.264       .  A
O1811     Co1826   1.984       .  S
O1812      C1815   1.295       .  A
O1812     Co1829   2.107       .  S
O1813      C1814   1.272       .  A
O1813     Co1828   2.020       .  S
C1814      C2155   1.484       .  S
C1815      C2135   1.471       .  S
C1816      C2143   1.477       .  S
C1817      C2147   1.478       .  S
O1818      C1831   1.280       .  A
O1818     Co1826   2.022       .  S
O1819      C1832   1.261       .  A
O1819     Co1827   2.014       .  S
O1820      C1833   1.260       .  A
O1820     Co1828   1.970       .  S
O1821      C1834   1.260       .  A
O1821     Co1829   1.892       .  S
O1822      C1834   1.298       .  A
O1822     Co1827   2.120       .  S
O1823      C1833   1.271       .  A
O1823     Co1826   2.014       .  S
O1824      C1831   1.267       .  A
O1824     Co1829   1.975       .  S
O1825      C1832   1.256       .  A
O1825     Co1828   1.963       .  S
Co1826     O1830   2.042       .  S
Co1827     O1830   2.027       .  S
Co1828     O1830   2.022       .  S
Co1829     O1830   1.999       .  S
C1831      C2159   1.474       .  S
C1832      C2151   1.479       .  S
C1833      C2164   1.469       .  S
C1834      C2139   1.479       .  S
C1835      C1836   1.548       .  S
C1835      C1841   1.541       .  S
C1835      C1839   1.544       .  S
C1835      C2136   1.511       .  S
C1836      H1843   1.085       .  S
C1836      C1837   1.369       .  D
C1837      C1904   1.501       .  S
C1837      C1838   1.547       .  S
C1838      C1842   1.541       .  S
C1838      C1840   1.541       .  S
C1838      H1844   1.112       .  S
C1839      H1845   1.086       .  S
C1839      C1840   1.360       .  D
C1840      C1964   1.488       .  S
C1841      H1846   1.086       .  S
C1841      C1842   1.363       .  D
C1842      C2123   1.489       .  S
C1847      C1848   1.545       .  S
C1847      C1853   1.546       .  S
C1847      C1851   1.548       .  S
C1847      C2140   1.521       .  S
C1848      H1855   1.086       .  S
C1848      C1849   1.365       .  D
C1849      C2122   1.499       .  S
C1849      C1850   1.548       .  S
C1850      C1854   1.540       .  S
C1850      C1852   1.544       .  S
C1850      H1856   1.111       .  S
C1851      H1857   1.086       .  S
C1851      C1852   1.366       .  D
C1852      C2078   1.499       .  S
C1853      H1858   1.086       .  S
C1853      C1854   1.364       .  D
C1854      C1905   1.491       .  S
C1859      C1860   1.547       .  S
C1859      C1865   1.544       .  S
C1859      C1863   1.540       .  S
C1859      C2144   1.509       .  S
C1860      H1867   1.086       .  S
C1860      C1861   1.368       .  D
C1861      C2041   1.494       .  S
C1861      C1862   1.542       .  S
C1862      C1866   1.548       .  S
C1862      C1864   1.539       .  S
C1862      H1868   1.112       .  S
C1863      H1869   1.087       .  S
C1863      C1864   1.356       .  D
C1864      C1961   1.485       .  S
C1865      H1870   1.086       .  S
C1865      C1866   1.367       .  D
C1866      C1903   1.499       .  S
C1871      C1872   1.546       .  S
C1871      C1877   1.536       .  S
C1871      C1875   1.551       .  S
C1871      C2152   1.512       .  S
C1872      H1879   1.086       .  S
C1872      C1873   1.363       .  D
C1873      C1906   1.494       .  S
C1873      C1874   1.541       .  S
C1874      C1878   1.547       .  S
C1874      C1876   1.542       .  S
C1874      H1880   1.112       .  S
C1875      H1881   1.085       .  S
C1875      C1876   1.372       .  D
C1876      C2077   1.499       .  S
C1877      H1882   1.086       .  S
C1877      C1878   1.356       .  D
C1878      C2044   1.486       .  S
N1883      H1915   1.040       .  S
N1883      C1887   1.353       .  A
N1884      C2613   1.347   1_545  A
N1884      C1892   1.349       .  A
N1885      H1916   1.036       .  S
N1885      C1889   1.352       .  A
N1886      C2615   1.348       .  A
N1886      C1894   1.348   1_565  A
C1887      C1895   1.383       .  A
C1887      C1903   1.413       .  A
C1888      C1904   1.406       .  A
C1888      C1896   1.381       .  A
C1889      C1897   1.381       .  A
C1889      C1906   1.410       .  A
C1890      C1905   1.410       .  A
C1890      C1898   1.381       .  A
C1891      N2606   1.350       .  A
C1891      C1903   1.408       .  A
C1891      C1899   1.379       .  A
C1892      C1906   1.405       .  A
C1892      C1900   1.378       .  A
C1893      N2608   1.352       .  A
C1893      C1901   1.376       .  A
C1893      C1904   1.406       .  A
C1894      C1902   1.379       .  A
C1894      C1905   1.406       .  A
C1895      H1907   1.082       .  S
C1896      H1908   1.082       .  S
C1897      H1909   1.081       .  S
C1898      H1910   1.081       .  S
C1899      C2622   1.376       .  A
C1899      H1911   1.081       .  S
C1900      C2621   1.374   1_545  A
C1900      H1912   1.080       .  S
C1901      C2624   1.375       .  A
C1901      H1913   1.081       .  S
C1902      C2623   1.375   1_545  A
C1902      H1914   1.080       .  S
C1917      C1918   1.538       .  S
C1917      C1923   1.540       .  S
C1917      C1921   1.553       .  S
C1917      C2148   1.513       .  S
C1918      H1925   1.086       .  S
C1918      C1919   1.357       .  D
C1919      C2124   1.493       .  S
C1919      C1920   1.545       .  S
C1920      C1924   1.543       .  S
C1920      C1922   1.540       .  S
C1920      H1926   1.112       .  S
C1921      H1927   1.085       .  S
C1921      C1922   1.374       .  D
C1922      C1963   1.499       .  S
C1923      H1928   1.086       .  S
C1923      C1924   1.361       .  D
C1924      C2008   1.484       .  S
C1929      C1930   1.546       .  S
C1929      C1935   1.538       .  S
C1929      C1933   1.552       .  S
C1929      C2156   1.517       .  S
C1930      H1937   1.086       .  S
C1930      C1931   1.368       .  D
C1931      C2007   1.495       .  S
C1931      C1932   1.546       .  S
C1932      C1936   1.541       .  S
C1932      C1934   1.543       .  S
C1932      H1938   1.112       .  S
C1933      H1939   1.086       .  S
C1933      C1934   1.371       .  D
C1934      C1962   1.502       .  S
C1935      H1940   1.086       .  S
C1935      C1936   1.356       .  D
C1936      C2042   1.487       .  S
N1941      H1973   1.039       .  S
N1941      C1946   1.354       .  A
N1942      C1949   1.346       .  A
N1943      H1974   1.038       .  S
N1943      C1948   1.351       .  A
N1944      C1951   1.353       .  A
C1945      C1953   1.382       .  A
C1945      C1961   1.405       .  A
C1946      C1962   1.411       .  A
C1946      C1954   1.382       .  A
C1947      C1955   1.381       .  A
C1947      C1964   1.405       .  A
C1948      C1963   1.407       .  A
C1948      C1956   1.382       .  A
C1949      C1961   1.398       .  A
C1949      C1957   1.378       .  A
C1950      C1964   1.401       .  A
C1950      C1958   1.378       .  A
C1951      C1959   1.377       .  A
C1951      C1962   1.410       .  A
C1952      C1960   1.378       .  A
C1952      C1963   1.414       .  A
C1953      H1965   1.082       .  S
C1954      H1966   1.082       .  S
C1955      H1967   1.082       .  S
C1956      H1968   1.082       .  S
C1957      H1969   1.080       .  S
C1958      H1970   1.081       .  S
C1959      H1971   1.081       .  S
C1960      H1972   1.081       .  S
C1975      C1976   1.539       .  S
C1975      C1981   1.547       .  S
C1975      C1979   1.542       .  S
C1975      C2163   1.505       .  S
C1976      H1983   1.086       .  S
C1976      C1977   1.361       .  D
C1977      C2043   1.487       .  S
C1977      C1978   1.546       .  S
C1978      C1982   1.547       .  S
C1978      C1980   1.541       .  S
C1978      H1984   1.111       .  S
C1979      H1985   1.086       .  S
C1979      C1980   1.361       .  D
C1980      C2076   1.488       .  S
C1981      H1986   1.086       .  S
C1981      C1982   1.365       .  D
C1982      C2010   1.500       .  S
N1987      H2019   1.038       .  S
N1987      C1991   1.350       .  A
N1988      C2717   1.350   1_545  A
N1988      C1996   1.353       .  A
N1989      H2020   1.039       .  S
N1989      C1993   1.352       .  A
N1990      C2719   1.349       .  A
N1990      C1998   1.350   1_565  A
C1991      C1999   1.381       .  A
C1991      C2007   1.405       .  A
C1992      C2008   1.404       .  A
C1992      C2000   1.381       .  A
C1993      C2001   1.381       .  A
C1993      C2010   1.407       .  A
C1994      C2009   1.409       .  A
C1994      C2002   1.381       .  A
C1995      N2710   1.349       .  A
C1995      C2007   1.405       .  A
C1995      C2003   1.378       .  A
C1996      C2010   1.409       .  A
C1996      C2004   1.378       .  A
C1997      N2712   1.345       .  A
C1997      C2005   1.378       .  A
C1997      C2008   1.398       .  A
C1998      C2006   1.377       .  A
C1998      C2009   1.404       .  A
C1999      H2011   1.082       .  S
C2000      H2012   1.082       .  S
C2001      H2013   1.082       .  S
C2002      H2014   1.081       .  S
C2003      C2726   1.377       .  A
C2003      H2015   1.082       .  S
C2004      C2725   1.376   1_545  A
C2004      H2016   1.080       .  S
C2005      C2728   1.373       .  A
C2005      H2017   1.081       .  S
C2006      C2727   1.373   1_545  A
C2006      H2018   1.081       .  S
C2009      C2091   1.493       .  S
N2021      H2053   1.037       .  S
N2021      C2026   1.350       .  A
N2022      C2751   1.348   1_545  A
N2022      C2030   1.345       .  A
N2023      H2054   1.039       .  S
N2023      C2028   1.349       .  A
N2024      C2753   1.346   1_545  A
N2024      C2032   1.346       .  A
C2025      C2033   1.380       .  A
C2025      C2041   1.409       .  A
C2026      C2042   1.405       .  A
C2026      C2034   1.381       .  A
C2027      C2035   1.381       .  A
C2027      C2044   1.402       .  A
C2028      C2043   1.404       .  A
C2028      C2036   1.381       .  A
C2029      N2744   1.350       .  A
C2029      C2041   1.406       .  A
C2029      C2037   1.379       .  A
C2030      C2044   1.403       .  A
C2030      C2038   1.380       .  A
C2031      N2746   1.348       .  A
C2031      C2039   1.379       .  A
C2031      C2042   1.405       .  A
C2032      C2040   1.378       .  A
C2032      C2043   1.398       .  A
C2033      H2045   1.082       .  S
C2034      H2046   1.081       .  S
C2035      H2047   1.082       .  S
C2036      H2048   1.082       .  S
C2037      C2760   1.376       .  A
C2037      H2049   1.081       .  S
C2038      C2759   1.377   1_545  A
C2038      H2050   1.081       .  S
C2039      C2762   1.373       .  A
C2039      H2051   1.080       .  S
C2040      C2761   1.374   1_545  A
C2040      H2052   1.081       .  S
N2055      H2087   1.038       .  S
N2055      C2060   1.349       .  A
N2056      C2063   1.348       .  A
N2057      H2088   1.038       .  S
N2057      C2062   1.354       .  A
N2058      C2065   1.350       .  A
C2059      C2067   1.381       .  A
C2059      C2075   1.407       .  A
C2060      C2076   1.404       .  A
C2060      C2068   1.381       .  A
C2061      C2069   1.382       .  A
C2061      C2078   1.412       .  A
C2062      C2077   1.416       .  A
C2062      C2070   1.382       .  A
C2063      C2075   1.402       .  A
C2063      C2071   1.378       .  A
C2064      C2078   1.407       .  A
C2064      C2072   1.378       .  A
C2065      C2073   1.378       .  A
C2065      C2076   1.407       .  A
C2066      C2074   1.380       .  A
C2066      C2077   1.411       .  A
C2067      H2079   1.081       .  S
C2068      H2080   1.082       .  S
C2069      H2081   1.082       .  S
C2070      H2082   1.082       .  S
C2071      H2083   1.079       .  S
C2072      H2084   1.081       .  S
C2073      H2085   1.080       .  S
C2074      H2086   1.081       .  S
C2075      C2094   1.486       .  S
C2089      C2090   1.547       .  S
C2089      C2095   1.542       .  S
C2089      C2093   1.540       .  S
C2089      C2160   1.507       .  S
C2090      H2097   1.086       .  S
C2090      C2091   1.369       .  D
C2091      C2092   1.542       .  S
C2092      C2096   1.549       .  S
C2092      C2094   1.539       .  S
C2092      H2098   1.111       .  S
C2093      H2099   1.086       .  S
C2093      C2094   1.356       .  D
C2095      H2100   1.086       .  S
C2095      C2096   1.364       .  D
C2096      C2121   1.495       .  S
N2101      H2133   1.041       .  S
N2101      C2105   1.351       .  A
N2102      C2831   1.349       .  A
N2102      C2110   1.349       .  A
N2103      H2134   1.038       .  S
N2103      C2107   1.351       .  A
N2104      C2833   1.350       .  A
N2104      C2112   1.347       .  A
C2105      C2113   1.382       .  A
C2105      C2121   1.407       .  A
C2106      C2122   1.404       .  A
C2106      C2114   1.381       .  A
C2107      C2115   1.382       .  A
C2107      C2124   1.408       .  A
C2108      C2123   1.409       .  A
C2108      C2116   1.380       .  A
C2109      N2824   1.348   1_545  A
C2109      C2121   1.406       .  A
C2109      C2117   1.379       .  A
C2110      C2124   1.407       .  A
C2110      C2118   1.379       .  A
C2111      N2826   1.351   1_545  A
C2111      C2119   1.378       .  A
C2111      C2122   1.409       .  A
C2112      C2120   1.381       .  A
C2112      C2123   1.406       .  A
C2113      H2125   1.082       .  S
C2114      H2126   1.082       .  S
C2115      H2127   1.081       .  S
C2116      H2128   1.081       .  S
C2117      C2840   1.378   1_545  A
C2117      H2129   1.081       .  S
C2118      C2839   1.374       .  A
C2118      H2130   1.080       .  S
C2119      C2842   1.378   1_545  A
C2119      H2131   1.081       .  S
C2120      C2841   1.377       .  A
C2120      H2132   1.081       .  S
C2135      H2137   1.086       .  S
C2135      C2136   1.343       .  D
C2136      H2138   1.088       .  S
C2139      H2141   1.087       .  S
C2139      C2140   1.343       .  D
C2140      H2142   1.086       .  S
C2143      H2145   1.086       .  S
C2143      C2144   1.343       .  D
C2144      H2146   1.088       .  S
C2147      H2149   1.087       .  S
C2147      C2148   1.341       .  D
C2148      H2150   1.087       .  S
C2151      H2153   1.086       .  S
C2151      C2152   1.349       .  D
C2152      H2154   1.087       .  S
C2155      H2157   1.087       .  S
C2155      C2156   1.342       .  D
C2156      H2158   1.087       .  S
C2159      H2161   1.086       .  S
C2159      C2160   1.342       .  D
C2160      H2162   1.088       .  S
C2163      H2165   1.088       .  S
C2163      C2164   1.343       .  D
C2164      H2166   1.087       .  S
O2167      C2175   1.274       .  A
O2167     Co2187   1.900       .  S
O2168      C2176   1.259       .  A
O2168     Co2188   1.962       .  S
O2169      C2177   1.261       .  A
O2169     Co2189   2.008       .  S
O2170      C2178   1.274       .  A
O2170     Co2190   2.008       .  S
O2171      C2177   1.257       .  A
O2171     Co2188   1.951       .  S
O2172      C2178   1.269       .  A
O2172     Co2187   1.982       .  S
O2173      C2176   1.274       .  A
O2173     Co2190   2.026       .  S
O2174      C2175   1.292       .  A
O2174     Co2189   2.112       .  S
C2175      C2516   1.480       .  S
C2176      C2496   1.468       .  S
C2177      C2504   1.460       .  S
C2178      C2508   1.477       .  S
O2179      C2192   1.271       .  A
O2179     Co2187   2.012       .  S
O2180      C2193   1.278       .  A
O2180     Co2188   2.014       .  S
O2181      C2194   1.268       .  A
O2181     Co2189   1.886       .  S
O2182      C2195   1.269       .  A
O2182     Co2190   1.975       .  S
O2183      C2195   1.271       .  A
O2183     Co2188   2.015       .  S
O2184      C2194   1.296       .  A
O2184     Co2187   2.126       .  S
O2185      C2192   1.267       .  A
O2185     Co2190   1.970       .  S
O2186      C2193   1.270       .  A
O2186     Co2189   1.973       .  S
Co2187     O2191   2.001       .  S
Co2188     O2191   2.009       .  S
Co2189     O2191   2.003       .  S
Co2190     O2191   2.027       .  S
C2192      C2520   1.473       .  S
C2193      C2512   1.471       .  S
C2194      C2525   1.481       .  S
C2195      C2500   1.477       .  S
C2196      C2197   1.535       .  S
C2196      C2202   1.549       .  S
C2196      C2200   1.544       .  S
C2196      C2497   1.506       .  S
C2197      H2204   1.086       .  S
C2197      C2198   1.356       .  D
C2198      C2265   1.483       .  S
C2198      C2199   1.546       .  S
C2199      C2203   1.543       .  S
C2199      C2201   1.543       .  S
C2199      H2205   1.111       .  S
C2200      H2206   1.086       .  S
C2200      C2201   1.363       .  D
C2201      C2325   1.492       .  S
C2202      H2207   1.086       .  S
C2202      C2203   1.369       .  D
C2203      C2484   1.499       .  S
C2208      C2209   1.541       .  S
C2208      C2214   1.538       .  S
C2208      C2212   1.553       .  S
C2208      C2501   1.512       .  S
C2209      H2216   1.086       .  S
C2209      C2210   1.361       .  D
C2210      C2483   1.493       .  S
C2210      C2211   1.549       .  S
C2211      C2215   1.540       .  S
C2211      C2213   1.543       .  S
C2211      H2217   1.111       .  S
C2212      H2218   1.086       .  S
C2212      C2213   1.373       .  D
C2213      C2439   1.504       .  S
C2214      H2219   1.086       .  S
C2214      C2215   1.357       .  D
C2215      C2266   1.485       .  S
C2220      C2221   1.540       .  S
C2220      C2226   1.534       .  S
C2220      C2224   1.541       .  S
C2220      C2505   1.489       .  S
C2221      H2228   1.086       .  S
C2221      C2222   1.359       .  D
C2222      C2402   1.486       .  S
C2222      C2223   1.542       .  S
C2223      C2227   1.541       .  S
C2223      C2225   1.545       .  S
C2223      H2229   1.112       .  S
C2224      H2230   1.086       .  S
C2224      C2225   1.365       .  D
C2225      C2322   1.489       .  S
C2226      H2231   1.086       .  S
C2226      C2227   1.354       .  D
C2227      C2264   1.477       .  S
C2232      C2233   1.541       .  S
C2232      C2238   1.537       .  S
C2232      C2236   1.548       .  S
C2232      C2513   1.503       .  S
C2233      H2240   1.086       .  S
C2233      C2234   1.362       .  D
C2234      C2267   1.489       .  S
C2234      C2235   1.544       .  S
C2235      C2239   1.548       .  S
C2235      C2237   1.541       .  S
C2235      H2241   1.111       .  S
C2236      H2242   1.086       .  S
C2236      C2237   1.365       .  D
C2237      C2438   1.497       .  S
C2238      H2243   1.086       .  S
C2238      C2239   1.359       .  D
C2239      C2405   1.488       .  S
N2244      H2276   1.041       .  S
N2244      C2248   1.346       .  A
N2245      C2253   1.347       .  A
N2246      H2277   1.038       .  S
N2246      C2250   1.351       .  A
N2247      C2255   1.347       .  A
C2248      C2256   1.380       .  A
C2248      C2264   1.393       .  A
C2249      C2265   1.396       .  A
C2249      C2257   1.381       .  A
C2250      C2258   1.381       .  A
C2250      C2267   1.406       .  A
C2251      C2266   1.406       .  A
C2251      C2259   1.381       .  A
C2252      C2264   1.397       .  A
C2252      C2260   1.377       .  A
C2253      C2267   1.401       .  A
C2253      C2261   1.378       .  A
C2254      C2262   1.378       .  A
C2254      C2265   1.397       .  A
C2255      C2263   1.378       .  A
C2255      C2266   1.403       .  A
C2256      H2268   1.082       .  S
C2257      H2269   1.082       .  S
C2258      H2270   1.082       .  S
C2259      H2271   1.081       .  S
C2260      H2272   1.080       .  S
C2261      H2273   1.081       .  S
C2262      H2274   1.081       .  S
C2263      H2275   1.080       .  S
C2278      C2279   1.543       .  S
C2278      C2284   1.540       .  S
C2278      C2282   1.549       .  S
C2278      C2509   1.509       .  S
C2279      H2286   1.086       .  S
C2279      C2280   1.365       .  D
C2280      C2485   1.498       .  S
C2280      C2281   1.547       .  S
C2281      C2285   1.546       .  S
C2281      C2283   1.540       .  S
C2281      H2287   1.111       .  S
C2282      H2288   1.086       .  S
C2282      C2283   1.364       .  D
C2283      C2324   1.494       .  S
C2284      H2289   1.086       .  S
C2284      C2285   1.362       .  D
C2285      C2369   1.490       .  S
C2290      C2291   1.560       .  S
C2290      C2296   1.535       .  S
C2290      C2294   1.542       .  S
C2290      C2517   1.518       .  S
C2291      H2298   1.085       .  S
C2291      C2292   1.379       .  D
C2292      C2368   1.511       .  S
C2292      C2293   1.544       .  S
C2293      C2297   1.540       .  S
C2293      C2295   1.542       .  S
C2293      H2299   1.112       .  S
C2294      H2300   1.086       .  S
C2294      C2295   1.361       .  D
C2295      C2323   1.489       .  S
C2296      H2301   1.087       .  S
C2296      C2297   1.354       .  D
C2297      C2403   1.481       .  S
N2302      H2334   1.040       .  S
N2302      C2307   1.349       .  A
N2302      C2667   1.350   1_554  A
N2303      C2310   1.350       .  A
N2304      H2335   1.040       .  S
N2304      C2309   1.350       .  A
N2304      C2669   1.349   1_554  A
N2305      C2312   1.349       .  A
C2306      N2663   1.349       .  A
C2306      C2314   1.380       .  A
C2306      C2322   1.401       .  A
C2307      C2323   1.406       .  A
C2307      C2315   1.383       .  A
C2308      N2665   1.350       .  A
C2308      C2316   1.382       .  A
C2308      C2325   1.406       .  A
C2309      C2324   1.403       .  A
C2309      C2317   1.381       .  A
C2310      C2322   1.404       .  A
C2310      C2318   1.378       .  A
C2311      C2325   1.406       .  A
C2311      C2319   1.378       .  A
C2312      C2320   1.378       .  A
C2312      C2323   1.405       .  A
C2313      C2321   1.377       .  A
C2313      C2324   1.408       .  A
C2314      C2676   1.378       .  A
C2314      H2326   1.082       .  S
C2315      C2675   1.380   1_554  A
C2315      H2327   1.082       .  S
C2316      C2678   1.381       .  A
C2316      H2328   1.082       .  S
C2317      C2677   1.379   1_554  A
C2317      H2329   1.082       .  S
C2318      H2330   1.081       .  S
C2319      H2331   1.080       .  S
C2320      H2332   1.081       .  S
C2321      H2333   1.080       .  S
C2336      C2337   1.550       .  S
C2336      C2342   1.539       .  S
C2336      C2340   1.546       .  S
C2336      C2524   1.514       .  S
C2337      H2344   1.085       .  S
C2337      C2338   1.371       .  D
C2338      C2404   1.500       .  S
C2338      C2339   1.545       .  S
C2339      C2343   1.542       .  S
C2339      C2341   1.542       .  S
C2339      H2345   1.112       .  S
C2340      H2346   1.086       .  S
C2340      C2341   1.366       .  D
C2341      C2437   1.494       .  S
C2342      H2347   1.086       .  S
C2342      C2343   1.355       .  D
C2343      C2371   1.486       .  S
N2348      H2380   1.040       .  S
N2348      C2352   1.356       .  A
N2349      C2357   1.347       .  A
N2350      H2381   1.038       .  S
N2350      C2354   1.348       .  A
N2351      C2359   1.350       .  A
C2352      C2360   1.381       .  A
C2352      C2368   1.413       .  A
C2353      C2369   1.406       .  A
C2353      C2361   1.381       .  A
C2354      C2362   1.381       .  A
C2354      C2371   1.405       .  A
C2355      C2370   1.403       .  A
C2355      C2363   1.379       .  A
C2356      C2368   1.411       .  A
C2356      C2364   1.377       .  A
C2357      C2371   1.405       .  A
C2357      C2365   1.380       .  A
C2358      C2366   1.378       .  A
C2358      C2369   1.399       .  A
C2359      C2367   1.379       .  A
C2359      C2370   1.405       .  A
C2360      H2372   1.082       .  S
C2361      H2373   1.082       .  S
C2362      H2374   1.082       .  S
C2363      H2375   1.081       .  S
C2364      H2376   1.081       .  S
C2365      H2377   1.081       .  S
C2366      H2378   1.081       .  S
C2367      H2379   1.080       .  S
C2370      C2452   1.492       .  S
N2382      H2414   1.036       .  S
N2382      C2387   1.347       .  A
N2382      C2747   1.350   1_554  A
N2383      C2391   1.347       .  A
N2384      H2415   1.039       .  S
N2384      C2389   1.353       .  A
N2384      C2749   1.351   1_554  A
N2385      C2393   1.351       .  A
C2386      N2743   1.348       .  A
C2386      C2394   1.380       .  A
C2386      C2402   1.400       .  A
C2387      C2403   1.403       .  A
C2387      C2395   1.381       .  A
C2388      N2745   1.347       .  A
C2388      C2396   1.382       .  A
C2388      C2405   1.401       .  A
C2389      C2404   1.408       .  A
C2389      C2397   1.381       .  A
C2390      C2402   1.406       .  A
C2390      C2398   1.379       .  A
C2391      C2405   1.402       .  A
C2391      C2399   1.378       .  A
C2392      C2400   1.380       .  A
C2392      C2403   1.404       .  A
C2393      C2401   1.377       .  A
C2393      C2404   1.407       .  A
C2394      C2756   1.375       .  A
C2394      H2406   1.081       .  S
C2395      C2755   1.376   1_554  A
C2395      H2407   1.081       .  S
C2396      C2758   1.381       .  A
C2396      H2408   1.082       .  S
C2397      C2757   1.381   1_554  A
C2397      H2409   1.082       .  S
C2398      H2410   1.081       .  S
C2399      H2411   1.081       .  S
C2400      H2412   1.080       .  S
C2401      H2413   1.081       .  S
N2416      H2448   1.038       .  S
N2416      C2421   1.351       .  A
N2417      C2424   1.352       .  A
N2417      C2786   1.351   1_554  A
N2418      H2449   1.038       .  S
N2418      C2423   1.353       .  A
N2419      C2426   1.351       .  A
N2419      C2788   1.352   1_554  A
C2420      C2428   1.381       .  A
C2420      C2436   1.406       .  A
C2421      C2437   1.410       .  A
C2421      C2429   1.382       .  A
C2422      C2430   1.381       .  A
C2422      C2439   1.414       .  A
C2423      C2438   1.411       .  A
C2423      C2431   1.381       .  A
C2424      C2436   1.407       .  A
C2424      C2432   1.378       .  A
C2425      N2778   1.353       .  A
C2425      C2439   1.411       .  A
C2425      C2433   1.378       .  A
C2426      C2434   1.379       .  A
C2426      C2437   1.409       .  A
C2427      N2780   1.352       .  A
C2427      C2435   1.378       .  A
C2427      C2438   1.409       .  A
C2428      H2440   1.082       .  S
C2429      H2441   1.082       .  S
C2430      H2442   1.082       .  S
C2431      H2443   1.081       .  S
C2432      C2794   1.375   1_554  A
C2432      H2444   1.081       .  S
C2433      C2793   1.376       .  A
C2433      H2445   1.080       .  S
C2434      C2796   1.375   1_554  A
C2434      H2446   1.081       .  S
C2435      C2795   1.374       .  A
C2435      H2447   1.080       .  S
C2436      C2455   1.494       .  S
C2450      C2451   1.541       .  S
C2450      C2456   1.539       .  S
C2450      C2454   1.546       .  S
C2450      C2521   1.504       .  S
C2451      H2458   1.086       .  S
C2451      C2452   1.359       .  D
C2452      C2453   1.542       .  S
C2453      C2457   1.545       .  S
C2453      C2455   1.544       .  S
C2453      H2459   1.111       .  S
C2454      H2460   1.086       .  S
C2454      C2455   1.367       .  D
C2456      H2461   1.086       .  S
C2456      C2457   1.361       .  D
C2457      C2482   1.486       .  S
N2462      H2494   1.046       .  S
N2462      C2828   1.349   1_554  A
N2462      C2466   1.347       .  A
N2463      C2471   1.350       .  A
N2464      H2495   1.036       .  S
N2464      C2830   1.352   1_554  A
N2464      C2468   1.353       .  A
N2465      C2473   1.352       .  A
C2466      C2474   1.381       .  A
C2466      C2482   1.402       .  A
C2467      N2823   1.348       .  A
C2467      C2483   1.402       .  A
C2467      C2475   1.381       .  A
C2468      C2476   1.381       .  A
C2468      C2485   1.412       .  A
C2469      N2825   1.352       .  A
C2469      C2484   1.416       .  A
C2469      C2477   1.382       .  A
C2470      C2482   1.405       .  A
C2470      C2478   1.379       .  A
C2471      C2485   1.409       .  A
C2471      C2479   1.380       .  A
C2472      C2480   1.380       .  A
C2472      C2483   1.408       .  A
C2473      C2481   1.380       .  A
C2473      C2484   1.415       .  A
C2474      C2836   1.380   1_554  A
C2474      H2486   1.082       .  S
C2475      C2835   1.380       .  A
C2475      H2487   1.082       .  S
C2476      C2838   1.381   1_554  A
C2476      H2488   1.081       .  S
C2477      C2837   1.382       .  A
C2477      H2489   1.081       .  S
C2478      H2490   1.081       .  S
C2479      H2491   1.081       .  S
C2480      H2492   1.081       .  S
C2481      H2493   1.081       .  S
C2496      H2498   1.087       .  S
C2496      C2497   1.344       .  D
C2497      H2499   1.088       .  S
C2500      H2502   1.087       .  S
C2500      C2501   1.341       .  D
C2501      H2503   1.087       .  S
C2504      H2506   1.086       .  S
C2504      C2505   1.342       .  D
C2505      H2507   1.088       .  S
C2508      H2510   1.086       .  S
C2508      C2509   1.350       .  D
C2509      H2511   1.088       .  S
C2512      H2514   1.086       .  S
C2512      C2513   1.349       .  D
C2513      H2515   1.088       .  S
C2516      H2518   1.086       .  S
C2516      C2517   1.338       .  D
C2517      H2519   1.088       .  S
C2520      H2522   1.086       .  S
C2520      C2521   1.343       .  D
C2521      H2523   1.087       .  S
C2524      H2526   1.087       .  S
C2524      C2525   1.341       .  D
C2525      H2527   1.086       .  S
O2528      C2536   1.274       .  A
O2528     Co2548   1.879       .  S
O2529      C2537   1.253       .  A
O2529     Co2549   1.961       .  S
O2530      C2538   1.244       .  A
O2530     Co2550   1.949       .  S
O2531      C2539   1.277       .  A
O2531     Co2551   2.030       .  S
O2532      C2538   1.258       .  A
O2532     Co2549   1.973       .  S
O2533      C2539   1.271       .  A
O2533     Co2548   1.988       .  S
O2534      C2537   1.272       .  A
O2534     Co2551   2.032       .  S
O2535      C2536   1.293       .  A
O2535     Co2550   2.074       .  S
C2536      C2877   1.460       .  S
C2537      C2857   1.470       .  S
C2538      C2865   1.443       .  S
C2539      C2869   1.491       .  S
O2540      C2553   1.267       .  A
O2540     Co2548   2.002       .  S
O2541      C2554   1.283       .  A
O2541     Co2549   2.056       .  S
O2542      C2555   1.234       .  A
O2542     Co2550   1.916       .  S
O2543      C2556   1.267       .  A
O2543     Co2551   1.969       .  S
O2544      C2556   1.270       .  A
O2544     Co2549   2.013       .  S
O2545      C2555   1.269       .  A
O2545     Co2548   2.056       .  S
O2546      C2553   1.267       .  A
O2546     Co2551   1.972       .  S
O2547      C2554   1.259       .  A
O2547     Co2550   1.951       .  S
Co2548     O2552   1.970       .  S
Co2549     O2552   2.053       .  S
Co2550     O2552   2.040       .  S
Co2551     O2552   2.041       .  S
C2553      C2881   1.471       .  S
C2554      C2873   1.482       .  S
C2555      C2886   1.467       .  S
C2556      C2861   1.476       .  S
C2557      C2558   1.539       .  S
C2557      C2563   1.551       .  S
C2557      C2561   1.538       .  S
C2557      C2858   1.508       .  S
C2558      H2565   1.086       .  S
C2558      C2559   1.360       .  D
C2559      C2626   1.490       .  S
C2559      C2560   1.547       .  S
C2560      C2564   1.542       .  S
C2560      C2562   1.542       .  S
C2560      H2566   1.112       .  S
C2561      H2567   1.086       .  S
C2561      C2562   1.358       .  D
C2562      C2686   1.485       .  S
C2563      H2568   1.085       .  S
C2563      C2564   1.370       .  D
C2564      C2845   1.498       .  S
C2569      C2570   1.543       .  S
C2569      C2575   1.541       .  S
C2569      C2573   1.547       .  S
C2569      C2862   1.509       .  S
C2570      H2577   1.086       .  S
C2570      C2571   1.364       .  D
C2571      C2844   1.494       .  S
C2571      C2572   1.547       .  S
C2572      C2576   1.541       .  S
C2572      C2574   1.544       .  S
C2572      H2578   1.111       .  S
C2573      H2579   1.086       .  S
C2573      C2574   1.366       .  D
C2574      C2800   1.496       .  S
C2575      H2580   1.086       .  S
C2575      C2576   1.360       .  D
C2576      C2627   1.490       .  S
C2581      C2582   1.538       .  S
C2581      C2587   1.535       .  S
C2581      C2585   1.542       .  S
C2581      C2866   1.483       .  S
C2582      H2589   1.086       .  S
C2582      C2583   1.361       .  D
C2583      C2763   1.485       .  S
C2583      C2584   1.542       .  S
C2584      C2588   1.543       .  S
C2584      C2586   1.544       .  S
C2584      H2590   1.111       .  S
C2585      H2591   1.086       .  S
C2585      C2586   1.360       .  D
C2586      C2683   1.489       .  S
C2587      H2592   1.087       .  S
C2587      C2588   1.354       .  D
C2588      C2625   1.480       .  S
C2593      C2594   1.554       .  S
C2593      C2599   1.540       .  S
C2593      C2597   1.548       .  S
C2593      C2874   1.521       .  S
C2594      H2601   1.085       .  S
C2594      C2595   1.374       .  D
C2595      C2628   1.510       .  S
C2595      C2596   1.545       .  S
C2596      C2600   1.547       .  S
C2596      C2598   1.541       .  S
C2596      H2602   1.111       .  S
C2597      H2603   1.086       .  S
C2597      C2598   1.364       .  D
C2598      C2799   1.497       .  S
C2599      H2604   1.086       .  S
C2599      C2600   1.362       .  D
C2600      C2766   1.493       .  S
N2605      H2637   1.041       .  S
N2605      C2609   1.346       .  A
N2606      C2614   1.353       .  A
N2607      H2638   1.037       .  S
N2607      C2611   1.357       .  A
N2608      C2616   1.349       .  A
C2609      C2617   1.382       .  A
C2609      C2625   1.397       .  A
C2610      C2626   1.401       .  A
C2610      C2618   1.382       .  A
C2611      C2619   1.380       .  A
C2611      C2628   1.416       .  A
C2612      C2627   1.410       .  A
C2612      C2620   1.382       .  A
C2613      C2625   1.401       .  A
C2613      C2621   1.377       .  A
C2614      C2628   1.411       .  A
C2614      C2622   1.378       .  A
C2615      C2623   1.377       .  A
C2615      C2626   1.402       .  A
C2616      C2624   1.379       .  A
C2616      C2627   1.409       .  A
C2617      H2629   1.082       .  S
C2618      H2630   1.082       .  S
C2619      H2631   1.081       .  S
C2620      H2632   1.081       .  S
C2621      H2633   1.080       .  S
C2622      H2634   1.080       .  S
C2623      H2635   1.081       .  S
C2624      H2636   1.080       .  S
C2639      C2640   1.551       .  S
C2639      C2645   1.542       .  S
C2639      C2643   1.550       .  S
C2639      C2870   1.525       .  S
C2640      H2647   1.085       .  S
C2640      C2641   1.371       .  D
C2641      C2846   1.505       .  S
C2641      C2642   1.545       .  S
C2642      C2646   1.548       .  S
C2642      C2644   1.540       .  S
C2642      H2648   1.112       .  S
C2643      H2649   1.086       .  S
C2643      C2644   1.364       .  D
C2644      C2685   1.495       .  S
C2645      H2650   1.086       .  S
C2645      C2646   1.364       .  D
C2646      C2730   1.497       .  S
C2651      C2652   1.558       .  S
C2651      C2657   1.531       .  S
C2651      C2655   1.537       .  S
C2651      C2878   1.501       .  S
C2652      H2659   1.083       .  S
C2652      C2653   1.369       .  D
C2653      C2729   1.498       .  S
C2653      C2654   1.543       .  S
C2654      C2658   1.542       .  S
C2654      C2656   1.541       .  S
C2654      H2660   1.111       .  S
C2655      H2661   1.087       .  S
C2655      C2656   1.358       .  D
C2656      C2684   1.487       .  S
C2657      H2662   1.087       .  S
C2657      C2658   1.354       .  D
C2658      C2764   1.479       .  S
N2663      H2695   1.040       .  S
N2663      C2668   1.350       .  A
N2664      C2671   1.349       .  A
N2665      H2696   1.039       .  S
N2665      C2670   1.352       .  A
N2666      C2673   1.348       .  A
C2667      C2675   1.381       .  A
C2667      C2683   1.403       .  A
C2668      C2684   1.404       .  A
C2668      C2676   1.382       .  A
C2669      C2677   1.382       .  A
C2669      C2686   1.404       .  A
C2670      C2685   1.407       .  A
C2670      C2678   1.382       .  A
C2671      C2683   1.402       .  A
C2671      C2679   1.378       .  A
C2672      C2686   1.402       .  A
C2672      C2680   1.378       .  A
C2673      C2681   1.377       .  A
C2673      C2684   1.400       .  A
C2674      C2682   1.377       .  A
C2674      C2685   1.405       .  A
C2675      H2687   1.082       .  S
C2676      H2688   1.081       .  S
C2677      H2689   1.082       .  S
C2678      H2690   1.082       .  S
C2679      H2691   1.081       .  S
C2680      H2692   1.080       .  S
C2681      H2693   1.081       .  S
C2682      H2694   1.080       .  S
C2697      C2698   1.551       .  S
C2697      C2703   1.540       .  S
C2697      C2701   1.549       .  S
C2697      C2885   1.518       .  S
C2698      H2705   1.081       .  S
C2698      C2699   1.357       .  D
C2699      C2765   1.486       .  S
C2699      C2700   1.538       .  S
C2700      C2704   1.541       .  S
C2700      C2702   1.543       .  S
C2700      H2706   1.112       .  S
C2701      H2707   1.086       .  S
C2701      C2702   1.367       .  D
C2702      C2798   1.498       .  S
C2703      H2708   1.086       .  S
C2703      C2704   1.361       .  D
C2704      C2732   1.487       .  S
N2709      H2741   1.039       .  S
N2709      C2713   1.352       .  A
N2710      C2718   1.349       .  A
N2711      H2742   1.037       .  S
N2711      C2715   1.348       .  A
N2712      C2720   1.347       .  A
C2713      C2721   1.382       .  A
C2713      C2729   1.410       .  A
C2714      C2730   1.407       .  A
C2714      C2722   1.382       .  A
C2715      C2723   1.380       .  A
C2715      C2732   1.401       .  A
C2716      C2731   1.399       .  A
C2716      C2724   1.380       .  A
C2717      C2729   1.408       .  A
C2717      C2725   1.378       .  A
C2718      C2732   1.408       .  A
C2718      C2726   1.380       .  A
C2719      C2727   1.377       .  A
C2719      C2730   1.402       .  A
C2720      C2728   1.379       .  A
C2720      C2731   1.401       .  A
C2721      H2733   1.082       .  S
C2722      H2734   1.082       .  S
C2723      H2735   1.081       .  S
C2724      H2736   1.081       .  S
C2725      H2737   1.081       .  S
C2726      H2738   1.081       .  S
C2727      H2739   1.080       .  S
C2728      H2740   1.080       .  S
C2731      C2813   1.485       .  S
N2743      H2775   1.036       .  S
N2743      C2748   1.347       .  A
N2744      C2752   1.348       .  A
N2745      H2776   1.040       .  S
N2745      C2750   1.349       .  A
N2746      C2754   1.347       .  A
C2747      C2755   1.379       .  A
C2747      C2763   1.401       .  A
C2748      C2764   1.401       .  A
C2748      C2756   1.381       .  A
C2749      C2757   1.381       .  A
C2749      C2766   1.407       .  A
C2750      C2765   1.401       .  A
C2750      C2758   1.382       .  A
C2751      C2763   1.404       .  A
C2751      C2759   1.379       .  A
C2752      C2766   1.405       .  A
C2752      C2760   1.379       .  A
C2753      C2761   1.379       .  A
C2753      C2764   1.401       .  A
C2754      C2762   1.377       .  A
C2754      C2765   1.401       .  A
C2755      H2767   1.082       .  S
C2756      H2768   1.081       .  S
C2757      H2769   1.082       .  S
C2758      H2770   1.082       .  S
C2759      H2771   1.081       .  S
C2760      H2772   1.081       .  S
C2761      H2773   1.080       .  S
C2762      H2774   1.081       .  S
N2777      H2809   1.040       .  S
N2777      C2782   1.352       .  A
N2778      C2785   1.352       .  A
N2779      H2810   1.039       .  S
N2779      C2784   1.352       .  A
N2780      C2787   1.351       .  A
C2781      C2789   1.382       .  A
C2781      C2797   1.407       .  A
C2782      C2798   1.409       .  A
C2782      C2790   1.382       .  A
C2783      C2791   1.381       .  A
C2783      C2800   1.408       .  A
C2784      C2799   1.407       .  A
C2784      C2792   1.381       .  A
C2785      C2797   1.410       .  A
C2785      C2793   1.378       .  A
C2786      C2800   1.408       .  A
C2786      C2794   1.378       .  A
C2787      C2795   1.378       .  A
C2787      C2798   1.408       .  A
C2788      C2796   1.378       .  A
C2788      C2799   1.408       .  A
C2789      H2801   1.082       .  S
C2790      H2802   1.082       .  S
C2791      H2803   1.082       .  S
C2792      H2804   1.082       .  S
C2793      H2805   1.081       .  S
C2794      H2806   1.080       .  S
C2795      H2807   1.081       .  S
C2796      H2808   1.080       .  S
C2797      C2816   1.494       .  S
C2811      C2812   1.537       .  S
C2811      C2817   1.543       .  S
C2811      C2815   1.547       .  S
C2811      C2882   1.503       .  S
C2812      H2819   1.087       .  S
C2812      C2813   1.354       .  D
C2813      C2814   1.542       .  S
C2814      C2818   1.544       .  S
C2814      C2816   1.543       .  S
C2814      H2820   1.111       .  S
C2815      H2821   1.086       .  S
C2815      C2816   1.367       .  D
C2817      H2822   1.086       .  S
C2817      C2818   1.366       .  D
C2818      C2843   1.491       .  S
N2823      H2855   1.038       .  S
N2823      C2827   1.351       .  A
N2824      C2832   1.351       .  A
N2825      H2856   1.034       .  S
N2825      C2829   1.356       .  A
N2826      C2834   1.351       .  A
C2827      C2835   1.381       .  A
C2827      C2843   1.404       .  A
C2828      C2844   1.402       .  A
C2828      C2836   1.380       .  A
C2829      C2837   1.380       .  A
C2829      C2846   1.416       .  A
C2830      C2845   1.413       .  A
C2830      C2838   1.381       .  A
C2831      C2843   1.403       .  A
C2831      C2839   1.377       .  A
C2832      C2846   1.410       .  A
C2832      C2840   1.379       .  A
C2833      C2841   1.378       .  A
C2833      C2844   1.404       .  A
C2834      C2842   1.379       .  A
C2834      C2845   1.411       .  A
C2835      H2847   1.082       .  S
C2836      H2848   1.082       .  S
C2837      H2849   1.081       .  S
C2838      H2850   1.081       .  S
C2839      H2851   1.081       .  S
C2840      H2852   1.081       .  S
C2841      H2853   1.081       .  S
C2842      H2854   1.081       .  S
C2857      H2859   1.087       .  S
C2857      C2858   1.339       .  D
C2858      H2860   1.088       .  S
C2861      H2863   1.087       .  S
C2861      C2862   1.342       .  D
C2862      H2864   1.087       .  S
C2865      H2867   1.088       .  S
C2865      C2866   1.334       .  D
C2866      H2868   1.088       .  S
C2869      H2871   1.086       .  S
C2869      C2870   1.354       .  D
C2870      H2872   1.087       .  S
C2873      H2875   1.086       .  S
C2873      C2874   1.347       .  D
C2874      H2876   1.087       .  S
C2877      H2879   1.082       .  S
C2877      C2878   1.331       .  D
C2878      H2880   1.088       .  S
C2881      H2883   1.086       .  S
C2881      C2882   1.339       .  D
C2882      H2884   1.088       .  S
C2885      H2887   1.088       .  S
C2885      C2886   1.352       .  D
C2886      H2888   1.077       .  S
