geometry optimzed in LAMMPS
_audit_creation_date              2020-12-01 
_audit_creation_method            'lammps2cif' 
_symmetry_space_group_name_H-M    'P1' 
_symmetry_Int_Tables_number       1 
_symmetry_cell_setting            triclinic 
loop_ 
_symmetry_equiv_pos_as_xyz 
  x,y,z 
_cell_length_a                    46.62900165 
_cell_length_b                    46.45295757491587 
_cell_length_c                    46.49659989214037 
_cell_angle_alpha                 89.98033405002992 
_cell_angle_beta                  90.01815316045534 
_cell_angle_gamma                 90.00551144139723 
loop_ 
_atom_site_label 
_atom_site_type_symbol 
_atom_site_fract_x 
_atom_site_fract_y 
_atom_site_fract_z 
_atom_site_charge 
O1          O  0.37752913  0.29938145  0.35155449    -0.84800
O2          O  0.36913579  0.33311584  0.30374626    -0.81800
C3          C  0.35930201  0.35342385  0.28870792     0.98700
O4          O  0.35189145  0.37676033  0.30052688    -0.81900
O5          O  0.30407053  0.36520313  0.33416841    -0.84500
C6          C  0.28932689  0.35607199  0.35505918     1.03200
O7          O  0.30125617  0.35138525  0.37910406    -0.77300
O8          O  0.33440908  0.30362732  0.37020485    -0.77500
C9          C  0.35383583  0.28840138  0.35912134     1.03200
O10         O  0.41014626  0.34540553  0.37717089    -0.84800
O11         O  0.40513708  0.37729431  0.32808952    -0.81800
C12         C  0.40008490  0.40261863  0.33678102     0.98700
O13         O  0.37586714  0.40898321  0.34699516    -0.81900
O14         O  0.32589938  0.40340369  0.37777205    -0.84500
C15         C  0.33632890  0.40058402  0.40270514     1.03200
O16         O  0.34861015  0.37740812  0.40954489    -0.77300
O17         O  0.37876668  0.32636188  0.40611606    -0.77400
C18         C  0.40412331  0.33455993  0.40118414     1.03100
Cr19       Cr  0.38796434  0.33991775  0.34138045     1.93700
Cr20       Cr  0.34067100  0.38606810  0.34098962     1.93200
Cr21       Cr  0.34191165  0.34088669  0.38873501     1.39100
O22         O  0.35677050  0.35534423  0.35678943    -1.22500
O23         O  0.36541303  0.12070532  0.30505137    -0.84800
O24         O  0.37380804  0.15374275  0.35314999    -0.81800
C25         C  0.34996469  0.16510786  0.35927685     0.98700
O26         O  0.32966016  0.15011858  0.36911988    -0.81900
O27         O  0.29626850  0.10177556  0.37727727    -0.84500
C28         C  0.28513084  0.09574849  0.35309077     1.03200
O29         O  0.30063648  0.08579171  0.33320607    -0.77300
O30         O  0.34939542  0.07654296  0.30110648    -0.77500
C31         C  0.35566205  0.10051833  0.28982125     1.03200
O32         O  0.40208797  0.07666053  0.32869905    -0.84800
O33         O  0.40554528  0.10772361  0.37867941    -0.81800
C34         C  0.39883995  0.11900115  0.40232121     0.98700
O35         O  0.37327934  0.12726977  0.40657456    -0.81900
O36         O  0.34255535  0.07668299  0.41029797    -0.84500
C37         C  0.33205338  0.05269897  0.40327481     1.03200
O38         O  0.32284380  0.04898237  0.37795887    -0.77300
O39         O  0.37380550  0.04460909  0.34811046    -0.77400
C40         C  0.39787795  0.05134120  0.33776083     1.03100
Cr41       Cr  0.38412821  0.11350363  0.34255681     1.93700
Cr42       Cr  0.33658776  0.11275765  0.38836432     1.93200
Cr43       Cr  0.33785995  0.06648590  0.34130034     1.39100
O44         O  0.35268978  0.09780097  0.35723245    -1.22500
O45         O  0.14933622  0.10239255  0.37477453    -0.84800
O46         O  0.11579434  0.15060031  0.36861279    -0.81800
C47         C  0.09625230  0.16553781  0.35722008     0.98700
O48         O  0.07284948  0.15409512  0.34952875    -0.81900
O49         O  0.08138066  0.11880632  0.30309553    -0.84500
C50         C  0.08977242  0.09761339  0.28848794     1.03200
O51         O  0.09462464  0.07386614  0.30065167    -0.77300
O52         O  0.14513680  0.08563180  0.33080529    -0.77500
C53         C  0.16055170  0.09597523  0.35074177     1.03200
O54         O  0.10412851  0.07598824  0.40792543    -0.84800
O55         O  0.07291798  0.12614469  0.40565085    -0.81800
C56         C  0.04723192  0.11879663  0.40089337     0.98700
O57         O  0.04023658  0.10905964  0.37666314    -0.81900
O58         O  0.04432684  0.07569589  0.32880141    -0.84500
C59         C  0.04854481  0.05072586  0.33896511     1.03200
O60         O  0.07273624  0.04408456  0.34938180    -0.77300
O61         O  0.12576783  0.05000415  0.37599183    -0.77400
C62         C  0.11790056  0.05359305  0.40153710     1.03100
Cr63       Cr  0.10934744  0.11258619  0.38682571     1.93700
Cr64       Cr  0.06221774  0.11328981  0.34064428     1.93200
Cr65       Cr  0.10824073  0.06600171  0.34033918     1.39100
O66         O  0.09343850  0.09771612  0.35576021    -1.22500
O67         O  0.10267241  0.30249747  0.37691129    -0.84800
O68         O  0.15045468  0.33623832  0.36748722    -0.81800
C69         C  0.16533632  0.35640448  0.35702690     0.98700
O70         O  0.15385216  0.38037096  0.35066128    -0.81900
O71         O  0.12132497  0.37274256  0.30255595    -0.84500
C72         C  0.10292598  0.36046446  0.28698458     1.03200
O73         O  0.07931451  0.35222737  0.29755443    -0.77300
O74         O  0.08969820  0.30469016  0.33184977    -0.77500
C75         C  0.09805775  0.29008931  0.35317894     1.03200
O76         O  0.07638490  0.34933746  0.40683078    -0.84800
O77         O  0.12725112  0.37998134  0.40374953    -0.81800
C78         C  0.11783042  0.40517818  0.40013978     0.98700
O79         O  0.10642658  0.41196818  0.37656781    -0.81900
O80         O  0.07570230  0.40759105  0.32715658    -0.84500
C81         C  0.05023517  0.40159283  0.33446182     1.03200
O82         O  0.04443410  0.37630717  0.34248191    -0.77300
O83         O  0.05113080  0.32679303  0.37458038    -0.77400
C84         C  0.05394019  0.33578735  0.40007169     1.03100
Cr85       Cr  0.11300164  0.34322018  0.38618540     1.93700
Cr86       Cr  0.11317672  0.39057827  0.34031387     1.93200
Cr87       Cr  0.06857286  0.34148244  0.33779972     1.39100
O88         O  0.09843109  0.35835396  0.35443819    -1.22500
O89         O  0.15385452  0.33655421  0.08418432    -0.84800
O90         O  0.10719734  0.30079283  0.07436257    -0.81800
C91         C  0.10145429  0.28862704  0.09801859     0.98700
O92         O  0.09271426  0.30344584  0.11900102    -0.81900
O93         O  0.08204245  0.35107308  0.15277512    -0.84500
C94         C  0.10561447  0.35925219  0.16354509     1.03200
O95         O  0.12430744  0.37127288  0.14805348    -0.77300
O96         O  0.15574722  0.38125179  0.09921720    -0.77500
C97         C  0.16810205  0.35757111  0.09390814     1.03200
O98         O  0.12903598  0.37932062  0.04719312    -0.84800
O99         O  0.07955514  0.34663409  0.04350462    -0.81800
C100        C  0.05671390  0.33378697  0.05047350     0.98700
O101        O  0.05406928  0.32472642  0.07595460    -0.81900
O102        O  0.04691570  0.37449278  0.10762007    -0.84500
C103        C  0.05250549  0.39936135  0.11695216     1.03200
O104        O  0.07775912  0.40490599  0.12500095    -0.77300
O105        O  0.10677492  0.41035511  0.07447513    -0.77400
C106        C  0.11848566  0.40410022  0.05089237     1.03100
Cr107      Cr  0.11628371  0.34192381  0.06478900     1.93700
Cr108      Cr  0.07132183  0.33986137  0.11267215     1.93200
Cr109      Cr  0.11509476  0.38934153  0.11054534     1.39100
O110        O  0.10108439  0.35687039  0.09627508    -1.22500
O111        O  0.33512063  0.30299264  0.08248536    -0.84800
O112        O  0.30355605  0.35189867  0.07308003    -0.81800
C113        C  0.29172051  0.35745047  0.09691148     0.98700
O114        O  0.30640315  0.36606504  0.11800690    -0.81900
O115        O  0.35392391  0.37611074  0.15214807    -0.84500
C116        C  0.36072251  0.35265133  0.16405607     1.03200
O117        O  0.37059085  0.33219341  0.14921433    -0.77300
O118        O  0.37812738  0.29821421  0.10122668    -0.77500
C119        C  0.35423330  0.28747509  0.09378566     1.03200
O120        O  0.38041917  0.32483188  0.04694650    -0.84800
O121        O  0.35132472  0.37663201  0.04325128    -0.81800
C122        C  0.33950386  0.40003972  0.05004001     0.98700
O123        O  0.32938987  0.40333037  0.07498771    -0.81900
O124        O  0.37891606  0.40781947  0.10615311    -0.84500
C125        C  0.40291809  0.40103985  0.11644095     1.03200
O126        O  0.40768842  0.37553749  0.12481576    -0.77300
O127        O  0.41195801  0.34377302  0.07574337    -0.77400
C128        C  0.40579785  0.33307570  0.05170547     1.03100
Cr129      Cr  0.34379601  0.34025677  0.06399174     1.93700
Cr130      Cr  0.34339117  0.38573419  0.11170185     1.93200
Cr131      Cr  0.38961333  0.33854248  0.11150582     1.39100
O132        O  0.35879343  0.35457328  0.09601586    -1.22500
O133        O  0.11716585  0.14892144  0.08579572    -0.84800
O134        O  0.15107820  0.10098345  0.07727599    -0.81800
C135        C  0.16259616  0.09399889  0.10099363     0.98700
O136        O  0.14726431  0.08451367  0.12130315    -0.81900
O137        O  0.09780788  0.07395789  0.15266881    -0.84500
C138        C  0.09158049  0.09762165  0.16449965     1.03200
O139        O  0.08209756  0.11822605  0.14962139    -0.77300
O140        O  0.07311222  0.15230824  0.10197495    -0.77500
C141        C  0.09690040  0.16392031  0.09574968     1.03200
O142        O  0.07411113  0.12555119  0.04790241    -0.84800
O143        O  0.10510088  0.07548205  0.04480635    -0.81800
C144        C  0.11851274  0.05282662  0.05105199     0.98700
O145        O  0.12654016  0.04886335  0.07656094    -0.81900
O146        O  0.07507221  0.04218663  0.10525859    -0.84500
C147        C  0.05107984  0.04866825  0.11605838     1.03200
O148        O  0.04664556  0.07386620  0.12538865    -0.77300
O149        O  0.04210763  0.10544663  0.07560537    -0.77400
C150        C  0.04876482  0.11669759  0.05189380     1.03100
Cr151      Cr  0.11072969  0.11157694  0.06636820     1.93700
Cr152      Cr  0.11034236  0.06489887  0.11283789     1.93200
Cr153      Cr  0.06345382  0.11136424  0.11198783     1.39100
O154        O  0.09505305  0.09625504  0.09732586    -1.22500
O155        O  0.37514258  0.15218031  0.10228946    -0.84800
O156        O  0.36710018  0.11902056  0.15062926    -0.81800
C157        C  0.35667074  0.09917576  0.16591366     0.98700
O158        O  0.35008721  0.07516661  0.15478597    -0.81900
O159        O  0.30225813  0.08287070  0.12088288    -0.84500
C160        C  0.28717651  0.09213362  0.10035651     1.03200
O161        O  0.29889155  0.09873207  0.07667563    -0.77300
O162        O  0.33118962  0.14805692  0.08589008    -0.77500
C163        C  0.35126877  0.16343892  0.09568844     1.03200
O164        O  0.40772150  0.10586009  0.07702399    -0.84800
O165        O  0.40433424  0.07519793  0.12756027    -0.81800
C166        C  0.40026355  0.04963688  0.11908526     0.98700
O167        O  0.37624550  0.04260372  0.10886974    -0.81900
O168        O  0.32655160  0.04650464  0.07711667    -0.84500
C169        C  0.33554920  0.05088267  0.05179977     1.03200
O170        O  0.34611637  0.07488976  0.04518404    -0.77300
O171        O  0.37555218  0.12580454  0.04936343    -0.77400
C172        C  0.40091799  0.11703239  0.05329779     1.03100
Cr173      Cr  0.38603649  0.11184240  0.11318956     1.93700
Cr174      Cr  0.34002730  0.06434955  0.11423741     1.93200
Cr175      Cr  0.33908649  0.11065119  0.06691046     1.39100
O176        O  0.35482810  0.09582053  0.09839433    -1.22500
N177        N  0.43269078  0.47557545  0.11949416    -0.36000
N178        N  0.47761978  0.43034727  0.12113409    -0.56600
N179        N  0.02077629  0.47434811  0.11813449    -0.36000
N180        N  0.47588586  0.01933995  0.12167635    -0.56600
C181        C  0.41759963  0.45175334  0.12640209     0.27600
C182        C  0.41661627  0.99865048  0.12703848     0.27600
C183        C  0.03625967  0.45105824  0.12651356     0.27500
C184        C  0.03554478  0.99812460  0.12588980     0.27500
C185        C  0.45412014  0.41609609  0.11178534     0.36200
C186        C  0.00063525  0.41541639  0.11130555     0.36200
C187        C  0.45255659  0.03567643  0.11540700     0.36200
C188        C  0.99909899  0.03483478  0.11353448     0.36200
C189        C  0.39173366  0.45971516  0.13884283    -0.21300
C190        C  0.39111596  0.48935003  0.13922687    -0.21300
C191        C  0.06082003  0.46050521  0.14069022    -0.21300
C192        C  0.06047267  0.49014060  0.13994940    -0.21300
C193        C  0.46216550  0.39256058  0.09560169    -0.22400
C194        C  0.49146591  0.39214355  0.09505288    -0.22400
C195        C  0.46108389  0.06143155  0.10329196    -0.22400
C196        C  0.49035133  0.06082766  0.10197674    -0.22400
C197        C  0.42557749  0.42339951  0.11882313    -0.17700
C198        C  0.42377845  0.02763090  0.12103503    -0.17700
C199        C  0.02798242  0.02659733  0.11837919    -0.17700
C200        C  0.02941416  0.42219659  0.11864337    -0.17700
H201        H  0.37485277  0.44569536  0.14651840     0.15200
H202        H  0.37375869  0.00247363  0.14739429     0.15200
H203        H  0.07739544  0.44793099  0.15093094     0.15200
H204        H  0.07669341  0.00420414  0.14888555     0.15200
H205        H  0.44847299  0.37790421  0.08425453     0.13500
H206        H  0.00397713  0.37701445  0.08274015     0.13500
H207        H  0.44788915  0.07882149  0.09574348     0.13500
H208        H  0.00337394  0.07781332  0.09344144     0.13500
H209        H  0.45121155  0.47587426  0.10698393     0.26700
H210        H  0.00294186  0.47421309  0.10460167     0.26700
N211        N  0.01819946  0.47643593  0.33640923    -0.36000
N212        N  0.47330484  0.02126690  0.33493558    -0.56600
N213        N  0.43010300  0.47722397  0.33519923    -0.36000
N214        N  0.47493729  0.43233829  0.33191755    -0.56600
C215        C  0.03262984  0.00048943  0.32881345     0.27600
C216        C  0.03346913  0.45350668  0.32675738     0.27600
C217        C  0.41395845  0.00056299  0.32876756     0.27500
C218        C  0.41476413  0.45366505  0.32795435     0.27500
C219        C  0.49655380  0.03659059  0.34330009     0.36200
C220        C  0.44995635  0.03716109  0.34200824     0.36200
C221        C  0.49817229  0.41717844  0.34096865     0.36200
C222        C  0.45155309  0.41759442  0.34091918     0.36200
C223        C  0.05699413  0.49303469  0.31356130    -0.21300
C224        C  0.05745625  0.46343380  0.31202872    -0.21300
C225        C  0.38820163  0.49170853  0.31671120    -0.21300
C226        C  0.38869788  0.46207074  0.31622926    -0.21300
C227        C  0.48787474  0.06205505  0.35597456    -0.22400
C228        C  0.45851369  0.06247456  0.35505790    -0.22400
C229        C  0.48926167  0.39325345  0.35640310    -0.22400
C230        C  0.45996092  0.39349886  0.35607619    -0.22400
C231        C  0.02531263  0.02870774  0.33735389    -0.17700
C232        C  0.02692009  0.42437958  0.33368657    -0.17700
C233        C  0.42277175  0.42511419  0.33471632    -0.17700
C234        C  0.42120864  0.02927400  0.33586995    -0.17700
H235        H  0.07280035  0.00743286  0.30439910     0.15200
H236        H  0.07363702  0.45110892  0.30089653     0.15200
H237        H  0.37066836  0.00509385  0.30939885     0.15200
H238        H  0.37157324  0.44835473  0.30854955     0.15200
H239        H  0.00107960  0.07863528  0.36503577     0.13500
H240        H  0.44526689  0.07941998  0.36337800     0.13500
H241        H  0.00193659  0.37772991  0.36806225     0.13500
H242        H  0.44655419  0.37832542  0.36699427     0.13500
H243        H  0.50078606  0.47574203  0.35047753     0.26700
H244        H  0.44884662  0.47709179  0.34737553     0.26700
N245        N  0.12161501  0.47919972  0.43184266    -0.36000
N246        N  0.12300285  0.43437357  0.47573290    -0.56600
N247        N  0.12147288  0.47863192  0.02007422    -0.36000
N248        N  0.12489841  0.02289538  0.47611466    -0.56600
C249        C  0.12781129  0.45553184  0.41605328     0.27600
C250        C  0.12906655  0.00242567  0.41592116     0.27600
C251        C  0.12729499  0.45480818  0.03580359     0.27500
C252        C  0.12869368  0.00168037  0.03634158     0.27500
C253        C  0.11561669  0.41866323  0.45235059     0.36200
C254        C  0.11576322  0.41832572  0.99892413     0.36200
C255        C  0.12567504  0.04051794  0.45297115     0.36200
C256        C  0.12584927  0.04023519  0.99945554     0.36200
C257        C  0.13998969  0.46368178  0.39017052    -0.21300
C258        C  0.14078724  0.49320380  0.39002921    -0.21300
C259        C  0.13878779  0.46268136  0.06207341    -0.21300
C260        C  0.13969625  0.49213399  0.06246828    -0.21300
C261        C  0.10369798  0.39277322  0.46082183    -0.22400
C262        C  0.10381157  0.39254863  0.49018894    -0.22400
C263        C  0.12942231  0.06879314  0.46168790    -0.22400
C264        C  0.12957010  0.06861437  0.49094123    -0.22400
C265        C  0.12060995  0.42697907  0.42353251    -0.17700
C266        C  0.12438946  0.03150428  0.42397939    -0.17700
C267        C  0.12453728  0.03089132  0.02839984    -0.17700
C268        C  0.12066363  0.42627623  0.02782314    -0.17700
H269        H  0.14765281  0.44981204  0.37312561     0.15200
H270        H  0.15000737  0.00591532  0.37292719     0.15200
H271        H  0.14613245  0.44869259  0.07917503     0.12800
H272        H  0.14877050  0.00447036  0.07989992     0.15200
H273        H  0.09545749  0.37582835  0.44746404     0.13500
H274        H  0.09560247  0.37550773  0.00341362     0.13500
H275        H  0.13317790  0.08766723  0.44860833     0.13500
H276        H  0.13348869  0.08737268  0.00414560     0.13500
H277        H  0.10955075  0.47952907  0.45067265     0.26700
H278        H  0.10995855  0.47917205  0.00090811     0.26700
N279        N  0.42951734  0.12433120  0.47754058    -0.36000
N280        N  0.47456240  0.12078222  0.02102498    -0.56600
N281        N  0.01836821  0.12378950  0.47664273    -0.36000
N282        N  0.47325176  0.12284798  0.43297135    -0.56600
C283        C  0.41483618  0.11533383  0.00104668     0.27600
C284        C  0.41408142  0.11644554  0.45411388     0.27600
C285        C  0.03353011  0.11468770  0.99981513     0.27500
C286        C  0.03278548  0.11520241  0.45285023     0.27500
C287        C  0.45152988  0.12655147  0.03774654     0.36200
C288        C  0.99797913  0.12666261  0.03718387     0.36200
C289        C  0.44981610  0.12890278  0.41685594     0.36200
C290        C  0.99639573  0.12839815  0.41630018     0.36200
C291        C  0.39002875  0.10150595  0.49234575    -0.21300
C292        C  0.38955345  0.10216432  0.46289419    -0.21300
C293        C  0.05763320  0.09998136  0.49066113    -0.21300
C294        C  0.05711416  0.10020782  0.46112497    -0.21300
C295        C  0.46036514  0.13667567  0.06434300    -0.22400
C296        C  0.48977227  0.13681088  0.06396354    -0.22400
C297        C  0.45813007  0.13897033  0.39005656    -0.22400
C298        C  0.48757973  0.13868026  0.38970041    -0.22400
C299        C  0.42287988  0.12021549  0.03005752    -0.17700
C300        C  0.42127807  0.12242565  0.42512482    -0.17700
C301        C  0.02503163  0.12152197  0.42400187    -0.17700
C302        C  0.02641173  0.12006752  0.02895673    -0.17700
H303        H  0.37402037  0.09147065  0.00556969     0.15200
H304        H  0.37317443  0.09264538  0.44966713     0.15200
H305        H  0.07353455  0.08949188  0.00376700     0.15200
H306        H  0.07259107  0.08987785  0.44745020     0.15200
H307        H  0.44709263  0.14315545  0.08228516     0.13500
H308        H  0.00346059  0.14336760  0.08156315     0.13500
H309        H  0.44448094  0.14552490  0.37240618     0.13500
H310        H  0.00083256  0.14504525  0.37170595     0.13500
H311        H  0.44775280  0.13745956  0.47757701     0.26700
H312        H  0.00053526  0.13745965  0.47703419     0.26700
N313        N  0.33525769  0.43213682  0.47642931    -0.36000
N314        N  0.33038661  0.47637947  0.43240417    -0.56600
N315        N  0.33304422  0.02021151  0.47712178    -0.36000
N316        N  0.33301630  0.47565369  0.02120834    -0.56600
C317        C  0.32807539  0.41625588  0.45317511     0.27600
C318        C  0.32972277  0.41583782  0.99988728     0.27600
C319        C  0.32494558  0.03603088  0.45403220     0.27500
C320        C  0.32644043  0.03563150  0.00095070     0.27500
C321        C  0.33706064  0.45322606  0.41593907     0.36200
C322        C  0.33568143  0.00003462  0.41616783     0.36200
C323        C  0.34058758  0.45236111  0.03700324     0.36200
C324        C  0.33918543  0.99898558  0.03751586     0.36200
C325        C  0.31734957  0.38981830  0.46195077    -0.21300
C326        C  0.31844123  0.38953330  0.49143879    -0.21300
C327        C  0.31265143  0.06158427  0.46331244    -0.21300
C328        C  0.31365065  0.06135692  0.49288402    -0.21300
C329        C  0.34654695  0.46227302  0.38927208    -0.22400
C330        C  0.34562250  0.49168201  0.38938467    -0.22400
C331        C  0.35142614  0.46102509  0.06328773    -0.22400
C332        C  0.35054266  0.49036414  0.06361039    -0.22400
C333        C  0.33348518  0.42410366  0.42436673    -0.17700
C334        C  0.33660618  0.42342572  0.02842070    -0.17700
C335        C  0.33350740  0.02782332  0.02955198    -0.17700
C336        C  0.33051453  0.02886984  0.42494003    -0.17700
H337        H  0.30976638  0.37237267  0.44853354     0.15200
H338        H  0.31184206  0.37182700  0.00506982     0.15200
H339        H  0.30395671  0.07873053  0.45018151     0.15200
H340        H  0.30586533  0.07829445  0.00682901     0.15200
H341        H  0.35336936  0.44935248  0.37136111     0.13500
H342        H  0.35157998  0.00497099  0.37150821     0.13500
H343        H  0.35936791  0.44791600  0.08055566     0.13500
H344        H  0.35776665  0.00348217  0.08116615     0.13500
H345        H  0.34679303  0.45131111  0.47618937     0.26700
H346        H  0.34560785  0.00170829  0.47657683     0.26700
N347        N  0.43580610  0.32813772  0.47611350    -0.36000
N348        N  0.47914201  0.33027600  0.43105103    -0.56600
N349        N  0.02368030  0.33174540  0.47559657    -0.36000
N350        N  0.48064210  0.32931495  0.02070894    -0.56600
C351        C  0.42011427  0.33641140  0.45288190     0.27600
C352        C  0.42078972  0.33595977  0.99986978     0.27600
C353        C  0.04017361  0.32847720  0.45169675     0.27500
C354        C  0.04105506  0.32819029  0.99888124     0.27500
C355        C  0.45552342  0.32560525  0.41476317     0.36200
C356        C  0.00213957  0.32642559  0.41373417     0.36200
C357        C  0.45721952  0.32474865  0.03734434     0.36200
C358        C  0.00401246  0.32596014  0.03777150     0.36200
C359        C  0.39534682  0.34993319  0.46205457    -0.21300
C360        C  0.39578580  0.34965296  0.49143183    -0.21300
C361        C  0.06796787  0.32189529  0.46003810    -0.21300
C362        C  0.06852833  0.32173519  0.48943670    -0.21300
C363        C  0.46348175  0.31759173  0.38727854    -0.22400
C364        C  0.49276065  0.31840507  0.38644426    -0.22400
C365        C  0.46572317  0.31724921  0.06483779    -0.22400
C366        C  0.49502543  0.31844924  0.06531729    -0.22400
C367        C  0.42707379  0.33135859  0.42363351    -0.17700
C368        C  0.42847792  0.33035013  0.02890673    -0.17700
C369        C  0.03307653  0.32942647  0.02854477    -0.17700
C370        C  0.03120294  0.33029381  0.42237655    -0.17700
H371        H  0.37873721  0.35954258  0.44915328     0.15200
H372        H  0.37952226  0.35895298  0.00480055     0.15200
H373        H  0.08597648  0.31633378  0.44647888     0.15200
H374        H  0.08705395  0.31597859  0.00218391     0.15200
H375        H  0.44978673  0.31169223  0.36945044     0.13500
H376        H  0.00491842  0.31245304  0.36767532     0.13500
H377        H  0.45239645  0.31157309  0.08300278     0.13500
H378        H  0.00740031  0.31319724  0.08415108     0.13500
H379        H  0.45427136  0.31550631  0.47582220     0.26700
H380        H  0.00248439  0.33848318  0.47589406     0.26700
C381        C  0.20970877  0.07842161  0.12350098     0.24200
C382        C  0.19444528  0.09549425  0.10357347    -0.23900
C383        C  0.21014774  0.11261906  0.08415126     0.19100
C384        C  0.24006247  0.11206911  0.08390511     0.24100
C385        C  0.25541063  0.09434681  0.10303073    -0.23900
C386        C  0.23989163  0.07791961  0.12328435     0.19000
F387        F  0.25379374  0.06041068  0.14207877    -0.13800
F388        F  0.19552991  0.06115315  0.14229815    -0.16200
F389        F  0.25400485  0.12902953  0.06465923    -0.16200
F390        F  0.19656454  0.12992097  0.06494898    -0.13800
C391        C  0.33158904  0.24086516  0.07804526     0.24200
C392        C  0.34964682  0.25606571  0.09701644    -0.23900
C393        C  0.36519253  0.24060199  0.11782324     0.19100
C394        C  0.36457215  0.21054296  0.11819603     0.24100
C395        C  0.34808257  0.19516549  0.09799669    -0.23900
C396        C  0.33082396  0.21067639  0.07851879     0.19000
F397        F  0.31471389  0.19669953  0.05860351    -0.13800
F398        F  0.31602279  0.25506503  0.05782984    -0.16200
F399        F  0.38063823  0.19645404  0.13808329    -0.16200
F400        F  0.38141787  0.25460164  0.13765216    -0.13800
C401        C  0.08437315  0.21128692  0.11899756     0.24200
C402        C  0.10029083  0.19560441  0.09855811    -0.23900
C403        C  0.11829822  0.21071805  0.07955796     0.19100
C404        C  0.11968697  0.24081203  0.08030505     0.24100
C405        C  0.10290713  0.25665153  0.09995328    -0.23900
C406        C  0.08547882  0.24146563  0.11953192     0.19000
F407        F  0.06824920  0.25581148  0.13819827    -0.13800
F408        F  0.06749742  0.19743734  0.13837049    -0.16200
F409        F  0.13705122  0.25444301  0.06122343    -0.16200
F410        F  0.13354167  0.19646084  0.05916049    -0.13800
C411        C  0.24538124  0.33430618  0.08346141     0.24200
C412        C  0.26027427  0.35548892  0.09902519    -0.23900
C413        C  0.24475346  0.37595358  0.11484369     0.19100
C414        C  0.21476645  0.37600114  0.11409753     0.24100
C415        C  0.19970391  0.35544807  0.09753652    -0.23900
C416        C  0.21542245  0.33397856  0.08309295     0.19000
F417        F  0.20192745  0.31313445  0.06775897    -0.13800
F418        F  0.25989097  0.31396255  0.06835444    -0.16200
F419        F  0.20057351  0.39637338  0.12945345    -0.16200
F420        F  0.25861510  0.39684659  0.12984551    -0.13800
C421        C  0.12693593  0.37571488  0.21052599     0.24200
C422        C  0.11000408  0.35603789  0.19496847    -0.23900
C423        C  0.09479485  0.33473052  0.21015411     0.19100
C424        C  0.09347703  0.33539283  0.24016619     0.24100
C425        C  0.10818682  0.35680056  0.25571202    -0.23900
C426        C  0.12643829  0.37573367  0.24066953     0.19000
F427        F  0.14247590  0.39548032  0.25497575    -0.13800
F428        F  0.14242546  0.39622606  0.19668954    -0.16200
F429        F  0.07738177  0.31531223  0.25396570    -0.16200
F430        F  0.08055000  0.31360123  0.19587192    -0.13800
C431        C  0.10609499  0.07708176  0.24166919     0.24200
C432        C  0.09270095  0.09956088  0.25690280    -0.23900
C433        C  0.08116123  0.12291881  0.24146392     0.19100
C434        C  0.08193530  0.12317529  0.21137554     0.24100
C435        C  0.09393004  0.09985885  0.19617914    -0.23900
C436        C  0.10673348  0.07725235  0.21180063     0.19000
F437        F  0.11951226  0.05472211  0.19828279    -0.13800
F438        F  0.11821991  0.05437899  0.25553192    -0.16200
F439        F  0.07001844  0.14579187  0.19726124    -0.16200
F440        F  0.06800447  0.14497185  0.25534818    -0.13800
C441        C  0.11429391  0.21300326  0.37525311     0.24200
C442        C  0.09990753  0.19709034  0.35401276    -0.23900
C443        C  0.08709828  0.21187084  0.33089538     0.19100
C444        C  0.08753169  0.24205646  0.32971466     0.24100
C445        C  0.10075224  0.25812823  0.35176172    -0.23900
C446        C  0.11460321  0.24308570  0.37425157     0.19000
F447        F  0.12761675  0.25744152  0.39609890    -0.13800
F448        F  0.12655304  0.19955607  0.39809815    -0.16200
F449        F  0.07361096  0.25542824  0.30781814    -0.16200
F450        F  0.07369228  0.19704285  0.30961601    -0.13800
C451        C  0.33306185  0.08706503  0.21285954     0.24200
C452        C  0.35355264  0.10311798  0.19744584    -0.23900
C453        C  0.37227666  0.12133649  0.21277109     0.19100
C454        C  0.37194733  0.12177796  0.24290116     0.24100
C455        C  0.35304147  0.10385661  0.25826290    -0.23900
C456        C  0.33294008  0.08727993  0.24292455     0.19000
F457        F  0.31326868  0.07100100  0.25707047    -0.13800
F458        F  0.31315609  0.07099602  0.19882747    -0.16200
F459        F  0.39131175  0.13845792  0.25698079    -0.16200
F460        F  0.39203078  0.13755797  0.19872350    -0.13800
C461        C  0.23747335  0.11487853  0.36936660     0.24200
C462        C  0.25342743  0.09899606  0.34917334    -0.23900
C463        C  0.23841632  0.08513751  0.32665935     0.19100
C464        C  0.20816856  0.08497748  0.32610736     0.24100
C465        C  0.19233351  0.09918626  0.34772986    -0.23900
C466        C  0.20756573  0.11507243  0.36859564     0.19000
F467        F  0.19353896  0.13050848  0.38901918    -0.13800
F468        F  0.25075752  0.13014158  0.39040777    -0.16200
F469        F  0.19454909  0.06986197  0.30517158    -0.16200
F470        F  0.25286966  0.07080715  0.30575061    -0.13800
C471        C  0.37528315  0.33141928  0.24177459     0.24200
C472        C  0.35768280  0.35092498  0.25686055    -0.23900
C473        C  0.33981338  0.36955738  0.24101623     0.19100
C474        C  0.33992690  0.36909050  0.21097576     0.24100
C475        C  0.35825652  0.35032538  0.19584319    -0.23900
C476        C  0.37563951  0.33119618  0.21160574     0.19000
F477        F  0.39414631  0.31328397  0.19791840    -0.13800
F478        F  0.39336995  0.31358388  0.25613445    -0.16200
F479        F  0.32214432  0.38734028  0.19670805    -0.16200
F480        F  0.32231687  0.38861602  0.25453696    -0.13800
C481        C  0.24189962  0.36799116  0.33165871     0.24200
C482        C  0.25763849  0.35273452  0.35258551    -0.23900
C483        C  0.24247824  0.33599201  0.37284388     0.19100
C484        C  0.21245813  0.33577382  0.37316414     0.24100
C485        C  0.19681996  0.35289477  0.35374782    -0.23900
C486        C  0.21183497  0.36830319  0.33244956     0.19000
F487        F  0.19737730  0.38406234  0.31256489    -0.13800
F488        F  0.25549717  0.38386005  0.31128040    -0.16200
F489        F  0.19879261  0.32005931  0.39363003    -0.16200
F490        F  0.25668166  0.32034213  0.39299629    -0.13800
C491        C  0.33160807  0.21238709  0.37699167     0.24200
C492        C  0.34710102  0.19655103  0.35649082    -0.23900
C493        C  0.36248026  0.21126719  0.33499218     0.19100
C494        C  0.36392775  0.24128187  0.33516060     0.24100
C495        C  0.34960955  0.25707886  0.35658476    -0.23900
C496        C  0.33261047  0.24241441  0.37684982     0.19000
F497        F  0.31837405  0.25703500  0.39771398    -0.13800
F498        F  0.31712748  0.19886077  0.39841644    -0.16200
F499        F  0.37947906  0.25484439  0.31449573    -0.16200
F500        F  0.37646753  0.19652389  0.31402578    -0.13800
O501        O  0.37753130  0.29937336  0.85155062    -0.84800
O502        O  0.36916317  0.33312606  0.80374677    -0.81800
C503        C  0.35931829  0.35343451  0.78871513     0.98700
O504        O  0.35188750  0.37675981  0.80054396    -0.81900
O505        O  0.30407887  0.36520449  0.83420717    -0.84500
C506        C  0.28934077  0.35607686  0.85510356     1.03200
O507        O  0.30127783  0.35139172  0.87914384    -0.77300
O508        O  0.33441558  0.30362419  0.87021174    -0.77500
C509        C  0.35383486  0.28839636  0.85911525     1.03200
O510        O  0.41015775  0.34539299  0.87718443    -0.84800
O511        O  0.40516436  0.37728724  0.82811933    -0.81800
C512        C  0.40010711  0.40261000  0.83681021     0.98700
O513        O  0.37588379  0.40897555  0.84700950    -0.81900
O514        O  0.32593458  0.40340259  0.87780285    -0.84500
C515        C  0.33637447  0.40057809  0.90273099     1.03200
O516        O  0.34865190  0.37739718  0.90956314    -0.77300
O517        O  0.37878248  0.32633231  0.90611970    -0.77400
C518        C  0.40413584  0.33453955  0.90119362     1.03100
Cr519      Cr  0.38798021  0.33991217  0.84139148     1.93700
Cr520      Cr  0.34068495  0.38606482  0.84101313     1.93200
Cr521      Cr  0.34193298  0.34087797  0.88875141     1.39100
O522        O  0.35678627  0.35533739  0.85680342    -1.22500
O523        O  0.36540957  0.12068427  0.80505129    -0.84800
O524        O  0.37379789  0.15372965  0.85314686    -0.81800
C525        C  0.34995314  0.16509661  0.85926676     0.98700
O526        O  0.32964826  0.15010701  0.86910900    -0.81900
O527        O  0.29626175  0.10176235  0.87727894    -0.84500
C528        C  0.28512568  0.09572263  0.85309530     1.03200
O529        O  0.30063112  0.08575585  0.83321537    -0.77300
O530        O  0.34938833  0.07652155  0.80110991    -0.77500
C531        C  0.35565931  0.10049560  0.78982293     1.03200
O532        O  0.40208865  0.07664981  0.82870045    -0.84800
O533        O  0.40553473  0.10770828  0.87868050    -0.81800
C534        C  0.39882938  0.11899310  0.90231831     0.98700
O535        O  0.37327033  0.12726840  0.90656695    -0.81900
O536        O  0.34255044  0.07667915  0.91030376    -0.84500
C537        C  0.33205873  0.05268892  0.90328584     1.03200
O538        O  0.32285338  0.04896166  0.87796994    -0.77300
O539        O  0.37381356  0.04459422  0.84811372    -0.77400
C540        C  0.39788460  0.05133064  0.83776340     1.03100
Cr541      Cr  0.38412176  0.11348872  0.84255729     1.93700
Cr542      Cr  0.33657981  0.11274892  0.88836138     1.93200
Cr543      Cr  0.33786089  0.06646310  0.84130690     1.39100
O544        O  0.35268372  0.09778525  0.85723275    -1.22500
O545        O  0.14933631  0.10240514  0.87476484    -0.84800
O546        O  0.11578396  0.15060300  0.86858423    -0.81800
C547        C  0.09624403  0.16553680  0.85718213     0.98700
O548        O  0.07284276  0.15408859  0.84949580    -0.81900
O549        O  0.08139821  0.11877386  0.80308672    -0.84500
C550        C  0.08978141  0.09756974  0.78849093     1.03200
O551        O  0.09462077  0.07382797  0.80066759    -0.77300
O552        O  0.14513536  0.08561269  0.83080670    -0.77500
C553        C  0.16055055  0.09596841  0.85073661     1.03200
O554        O  0.10414364  0.07600113  0.90793569    -0.84800
O555        O  0.07291135  0.12614439  0.90563810    -0.81800
C556        C  0.04722571  0.11879521  0.90087658     0.98700
O557        O  0.04023262  0.10906148  0.87664444    -0.81900
O558        O  0.04433615  0.07567737  0.82880137    -0.84500
C559        C  0.04854954  0.05071345  0.83898071     1.03200
O560        O  0.07273778  0.04407469  0.84940726    -0.77300
O561        O  0.12577619  0.05000925  0.87600544    -0.77400
C562        C  0.11791436  0.05360373  0.90155021     1.03100
Cr563      Cr  0.10934661  0.11259346  0.88681667     1.93700
Cr564      Cr  0.06222181  0.11327623  0.84062997     1.93200
Cr565      Cr  0.10824173  0.06598676  0.84035272     1.39100
O566        O  0.09343896  0.09770780  0.85575922    -1.22500
O567        O  0.10268081  0.30248587  0.87688967    -0.84800
O568        O  0.15046636  0.33622643  0.86749230    -0.81800
C569        C  0.16535064  0.35639159  0.85703538     0.98700
O570        O  0.15386965  0.38035638  0.85065482    -0.81900
O571        O  0.12133146  0.37276087  0.80255363    -0.84500
C572        C  0.10293539  0.36048186  0.78698044     1.03200
O573        O  0.07932342  0.35224271  0.79754774    -0.77300
O574        O  0.08971464  0.30470292  0.83182617    -0.77500
C575        C  0.09807344  0.29009110  0.85314699     1.03200
O576        O  0.07639670  0.34933558  0.90682368    -0.84800
O577        O  0.12727081  0.37996587  0.90375774    -0.81800
C578        C  0.11787130  0.40517108  0.90014603     0.98700
O579        O  0.10646307  0.41196541  0.87657842    -0.81900
O580        O  0.07571421  0.40760208  0.82718714    -0.84500
C581        C  0.05024450  0.40159585  0.83448109     1.03200
O582        O  0.04444117  0.37630608  0.84248602    -0.77300
O583        O  0.05114728  0.32678767  0.87457348    -0.77400
C584        C  0.05395188  0.33578735  0.90006401     1.03100
Cr585      Cr  0.11301281  0.34321037  0.88618164     1.93700
Cr586      Cr  0.11319430  0.39058097  0.84032029     1.93200
Cr587      Cr  0.06858594  0.34148786  0.83779309     1.39100
O588        O  0.09844602  0.35835468  0.85443646    -1.22500
O589        O  0.15386365  0.33655208  0.58419555    -0.84800
O590        O  0.10721142  0.30078365  0.57436887    -0.81800
C591        C  0.10147297  0.28861900  0.59802706     0.98700
O592        O  0.09273202  0.30343883  0.61900758    -0.81900
O593        O  0.08206634  0.35106195  0.65278073    -0.84500
C594        C  0.10563983  0.35924703  0.66354513     1.03200
O595        O  0.12432576  0.37127409  0.64805003    -0.77300
O596        O  0.15575095  0.38125659  0.59920785    -0.77500
C597        C  0.16810867  0.35757469  0.59391078     1.03200
O598        O  0.12904305  0.37931733  0.54719824    -0.84800
O599        O  0.07956688  0.34662438  0.54350899    -0.81800
C600        C  0.05672310  0.33378214  0.55047878     0.98700
O601        O  0.05407956  0.32471740  0.57595926    -0.81900
O602        O  0.04692473  0.37447977  0.60762587    -0.84500
C603        C  0.05251257  0.39934938  0.61695646     1.03200
O604        O  0.07776427  0.40489509  0.62501009    -0.77300
O605        O  0.10675842  0.41034016  0.57447288    -0.77400
C606        C  0.11847371  0.40409016  0.55089127     1.03100
Cr607      Cr  0.11629508  0.34191661  0.56479457     1.93700
Cr608      Cr  0.07133537  0.33985076  0.61267837     1.93200
Cr609      Cr  0.11509847  0.38933729  0.61054408     1.39100
O610        O  0.10109403  0.35686194  0.59627944    -1.22500
O611        O  0.33513528  0.30298360  0.58249466    -0.84800
O612        O  0.30356278  0.35189029  0.57307781    -0.81800
C613        C  0.29172759  0.35746270  0.59690410     0.98700
O614        O  0.30641109  0.36608529  0.61799551    -0.81900
O615        O  0.35393671  0.37612708  0.65213447    -0.84500
C616        C  0.36074307  0.35267331  0.66405032     1.03200
O617        O  0.37061118  0.33221146  0.64921283    -0.77300
O618        O  0.37814354  0.29821482  0.60123258    -0.77500
C619        C  0.35425074  0.28746998  0.59379770     1.03200
O620        O  0.38042110  0.32482717  0.54693603    -0.84800
O621        O  0.35131427  0.37661803  0.54322795    -0.81800
C622        C  0.33951044  0.40003525  0.55001456     0.98700
O623        O  0.32940605  0.40333741  0.57496520    -0.81900
O624        O  0.37893069  0.40782053  0.60612907    -0.84500
C625        C  0.40293327  0.40104048  0.61641350     1.03200
O626        O  0.40770376  0.37554107  0.62479306    -0.77300
O627        O  0.41196235  0.34377040  0.57573040    -0.77400
C628        C  0.40579872  0.33307515  0.55169260     1.03100
Cr629      Cr  0.34379970  0.34024772  0.56398675     1.93700
Cr630      Cr  0.34340410  0.38574304  0.61168405     1.93200
Cr631      Cr  0.38962514  0.33854736  0.61149682     1.39100
O632        O  0.35880227  0.35457507  0.59600518    -1.22500
O633        O  0.11718999  0.14891526  0.58581120    -0.84800
O634        O  0.15109334  0.10097952  0.57726161    -0.81800
C635        C  0.16261435  0.09399792  0.60097802     0.98700
O636        O  0.14728595  0.08450881  0.62128857    -0.81900
O637        O  0.09783875  0.07392157  0.65265770    -0.84500
C638        C  0.09160515  0.09757400  0.66450424     1.03200
O639        O  0.08212629  0.11818873  0.64963907    -0.77300
O640        O  0.07314579  0.15230281  0.60201948    -0.77500
C641        C  0.09693224  0.16391303  0.59578262     1.03200
O642        O  0.07412448  0.12556841  0.54792122    -0.84800
O643        O  0.10509882  0.07549067  0.54480265    -0.81800
C644        C  0.11850994  0.05283229  0.55103897     0.98700
O645        O  0.12655841  0.04887006  0.57654048    -0.81900
O646        O  0.07509738  0.04217060  0.60524870    -0.84500
C647        C  0.05110248  0.04865033  0.61604588     1.03200
O648        O  0.04666363  0.07384739  0.62537815    -0.77300
O649        O  0.04212326  0.10546338  0.57562457    -0.77400
C650        C  0.04877874  0.11671629  0.55191399     1.03100
Cr651      Cr  0.11074240  0.11157952  0.56637221     1.93700
Cr652      Cr  0.11036703  0.06488717  0.61282484     1.93200
Cr653      Cr  0.06347779  0.11135362  0.61200487     1.39100
O654        O  0.09507194  0.09624813  0.59732865    -1.22500
O655        O  0.37516326  0.15216706  0.60230235    -0.84800
O656        O  0.36712485  0.11899642  0.65063399    -0.81800
C657        C  0.35668430  0.09915375  0.66591364     0.98700
O658        O  0.35008857  0.07515022  0.65478083    -0.81900
O659        O  0.30226853  0.08285525  0.62086547    -0.84500
C660        C  0.28719089  0.09212617  0.60033959     1.03200
O661        O  0.29890898  0.09873058  0.57666327    -0.77300
O662        O  0.33121005  0.14804862  0.58590456    -0.77500
C663        C  0.35128860  0.16342794  0.59570941     1.03200
O664        O  0.40773588  0.10584861  0.57702210    -0.84800
O665        O  0.40435706  0.07518231  0.62754952    -0.81800
C666        C  0.40028378  0.04962348  0.61907222     0.98700
O667        O  0.37626073  0.04258983  0.60886788    -0.81900
O668        O  0.32657558  0.04649246  0.57710238    -0.84500
C669        C  0.33556740  0.05087937  0.55178469     1.03200
O670        O  0.34612738  0.07489109  0.54517212    -0.77300
O671        O  0.37556899  0.12580331  0.54936713    -0.77400
C672        C  0.40093298  0.11702664  0.55329892     1.03100
Cr673      Cr  0.38605521  0.11182592  0.61318981     1.93700
Cr674      Cr  0.34004037  0.06433554  0.61422834     1.93200
Cr675      Cr  0.33910395  0.11064811  0.56691005     1.39100
O676        O  0.35484453  0.09580807  0.59839138    -1.22500
N677        N  0.43270691  0.47556970  0.61947176    -0.36000
N678        N  0.47762882  0.43033764  0.62111125    -0.56600
N679        N  0.02078879  0.47433651  0.61812337    -0.36000
N680        N  0.47590722  0.01932593  0.62164230    -0.56600
C681        C  0.41761873  0.45174727  0.62638273     0.27600
C682        C  0.41664183  0.99863958  0.62701320     0.27600
C683        C  0.03626070  0.45104474  0.62651928     0.27500
C684        C  0.03556291  0.99810928  0.62589337     0.27500
C685        C  0.45413174  0.41609443  0.61174802     0.36200
C686        C  0.00064871  0.41541011  0.61128020     0.36200
C687        C  0.45257823  0.03566236  0.61537145     0.36200
C688        C  0.99912242  0.03481069  0.61350442     0.36200
C689        C  0.39175902  0.45970588  0.63883788    -0.21300
C690        C  0.39114099  0.48934033  0.63922653    -0.21300
C691        C  0.06080367  0.46048794  0.64072726    -0.21300
C692        C  0.06046044  0.49012468  0.63998628    -0.21300
C693        C  0.46217842  0.39256421  0.59555630    -0.22400
C694        C  0.49148011  0.39214203  0.59502063    -0.22400
C695        C  0.46110633  0.06141353  0.60324893    -0.22400
C696        C  0.49037479  0.06080641  0.60193095    -0.22400
C697        C  0.42559190  0.42339704  0.61879109    -0.17700
C698        C  0.42380090  0.02761921  0.62100898    -0.17700
C699        C  0.02800553  0.02657801  0.61836297    -0.17700
C700        C  0.02942205  0.42218484  0.61863796    -0.17700
H701        H  0.37488196  0.44568410  0.64651833     0.15200
H702        H  0.37379713  0.00246108  0.64739657     0.15200
H703        H  0.07736391  0.44790792  0.65098628     0.15200
H704        H  0.07669366  0.00419455  0.64891957     0.15200
H705        H  0.44848630  0.37791428  0.58419901     0.13500
H706        H  0.00400026  0.37701979  0.58270183     0.13500
H707        H  0.44791119  0.07880246  0.59569916     0.13500
H708        H  0.00339968  0.07776454  0.59336395     0.13500
H709        H  0.45122147  0.47587006  0.60695220     0.26700
H710        H  0.00296898  0.47420392  0.60457096     0.26700
N711        N  0.01820591  0.47643258  0.83641504    -0.36000
N712        N  0.47331589  0.02126156  0.83494476    -0.56600
N713        N  0.43011796  0.47721790  0.83522611    -0.36000
N714        N  0.47495263  0.43233171  0.83195161    -0.56600
C715        C  0.03263312  0.00048422  0.82882212     0.27600
C716        C  0.03347089  0.45350158  0.82676181     0.27600
C717        C  0.41397574  0.00055798  0.82876729     0.27500
C718        C  0.41478327  0.45365521  0.82798423     0.27500
C719        C  0.49656428  0.03658686  0.84330713     0.36200
C720        C  0.44996693  0.03715813  0.84201091     0.36200
C721        C  0.49819106  0.41718272  0.84100944     0.36200
C722        C  0.45157190  0.41759484  0.84097166     0.36200
C723        C  0.05699318  0.49302500  0.81354927    -0.21300
C724        C  0.05745145  0.46342398  0.81201960    -0.21300
C725        C  0.38822196  0.49169233  0.81671727    -0.21300
C726        C  0.38872060  0.46205470  0.81624641    -0.21300
C727        C  0.48788426  0.06205465  0.85597374    -0.22400
C728        C  0.45852319  0.06247529  0.85505365    -0.22400
C729        C  0.48928761  0.39327173  0.85647028    -0.22400
C730        C  0.45998405  0.39351434  0.85615209    -0.22400
C731        C  0.02531733  0.02869860  0.83736970    -0.17700
C732        C  0.02692737  0.42437844  0.83370687    -0.17700
C733        C  0.42279171  0.42510719  0.83475672    -0.17700
C734        C  0.42122012  0.02926863  0.83587210    -0.17700
H735        H  0.07279387  0.00743359  0.80439303     0.15200
H736        H  0.07362599  0.45109502  0.80088255     0.15200
H737        H  0.37069703  0.00508642  0.80937364     0.15200
H738        H  0.37160022  0.44833511  0.80856367     0.15200
H739        H  0.00107985  0.07863735  0.86502656     0.13500
H740        H  0.44527565  0.07942480  0.86336522     0.13500
H741        H  0.00196420  0.37776864  0.86814417     0.13500
H742        H  0.44657771  0.37835163  0.86708883     0.13500
H743        H  0.50080529  0.47574597  0.85049612     0.26700
H744        H  0.44885844  0.47709211  0.84740761     0.26700
N745        N  0.12167412  0.47919715  0.93184670    -0.36000
N746        N  0.12307102  0.43436874  0.97573588    -0.56600
N747        N  0.12144256  0.47862648  0.52007298    -0.36000
N748        N  0.12492833  0.02290033  0.97612571    -0.56600
C749        C  0.12786128  0.45553052  0.91605064     0.27600
C750        C  0.12909560  0.00243763  0.91592822     0.27600
C751        C  0.12725975  0.45480145  0.53580320     0.27500
C752        C  0.12865843  0.00168116  0.53633121     0.27500
C753        C  0.11567545  0.41866276  0.95235351     0.36200
C754        C  0.11572927  0.41831658  0.49892234     0.36200
C755        C  0.12569535  0.04052569  0.95298388     0.36200
C756        C  0.12582042  0.04023320  0.49944212     0.36200
C757        C  0.14000305  0.46368645  0.89015257    -0.21300
C758        C  0.14078508  0.49320918  0.89000921    -0.21300
C759        C  0.13874766  0.46267381  0.56207536    -0.21300
C760        C  0.13965893  0.49212537  0.56247096    -0.21300
C761        C  0.10371904  0.39278973  0.96082325    -0.22400
C762        C  0.10381490  0.39257217  0.99019027    -0.22400
C763        C  0.12943571  0.06880083  0.96170338    -0.22400
C764        C  0.12959056  0.06861823  0.99095699    -0.22400
C765        C  0.12067023  0.42697474  0.92353517    -0.17700
C766        C  0.12440898  0.03151477  0.92399124    -0.17700
C767        C  0.12451203  0.03089263  0.52838670    -0.17700
C768        C  0.12063653  0.42626733  0.52782068    -0.17700
H769        H  0.14764874  0.44982096  0.87309634     0.15200
H770        H  0.15001624  0.00593449  0.87292327     0.15200
H771        H  0.14609008  0.44868535  0.57917814     0.12800
H772        H  0.14876145  0.00446947  0.57987815     0.15200
H773        H  0.09545217  0.37585847  0.94746347     0.13500
H774        H  0.09563931  0.37546499  0.50341195     0.13500
H775        H  0.13318300  0.08767763  0.94862546     0.13500
H776        H  0.13347142  0.08736945  0.50412798     0.13500
H777        H  0.10963055  0.47952074  0.95068942     0.26700
H778        H  0.10993373  0.47916966  0.50090397     0.26700
N779        N  0.42950405  0.12432465  0.97753679    -0.36000
N780        N  0.47457696  0.12079346  0.52103523    -0.56600
N781        N  0.01835588  0.12377144  0.97662312    -0.36000
N782        N  0.47324174  0.12282716  0.93296186    -0.56600
C783        C  0.41485400  0.11533058  0.50104968     0.27600
C784        C  0.41406567  0.11644417  0.95411098     0.27600
C785        C  0.03354598  0.11471051  0.49983503     0.27500
C786        C  0.03277217  0.11518490  0.95283056     0.27500
C787        C  0.45154172  0.12655665  0.53775418     0.36200
C788        C  0.99799104  0.12666811  0.53720475     0.36200
C789        C  0.44980515  0.12888697  0.91684986     0.36200
C790        C  0.99638684  0.12839248  0.91628176     0.36200
C791        C  0.39000357  0.10152128  0.99234401    -0.21300
C792        C  0.38952954  0.10217725  0.96289268    -0.21300
C793        C  0.05761483  0.09995325  0.99064146    -0.21300
C794        C  0.05709676  0.10018273  0.96110485    -0.21300
C795        C  0.46037151  0.13667937  0.56435335    -0.22400
C796        C  0.48977855  0.13681930  0.56397834    -0.22400
C797        C  0.45811770  0.13895225  0.89004914    -0.22400
C798        C  0.48756694  0.13865693  0.88968876    -0.22400
C799        C  0.42289482  0.12021438  0.53006100    -0.17700
C800        C  0.42126596  0.12241769  0.92512160    -0.17700
C801        C  0.02502257  0.12151400  0.92398328    -0.17700
C802        C  0.02642562  0.12008539  0.52897721    -0.17700
H803        H  0.37405259  0.09144428  0.50557104     0.15200
H804        H  0.37314460  0.09266738  0.94966731     0.15200
H805        H  0.07355422  0.08952288  0.50378601     0.15200
H806        H  0.07257180  0.08985123  0.94742962     0.15200
H807        H  0.44709536  0.14315473  0.58229446     0.13500
H808        H  0.00346425  0.14336616  0.58158801     0.13500
H809        H  0.44446754  0.14551033  0.87240085     0.13500
H810        H  0.00082312  0.14503573  0.87168581     0.13500
H811        H  0.44774650  0.13744576  0.97757093     0.26700
H812        H  0.00052629  0.13744963  0.97701548     0.26700
N813        N  0.33527197  0.43213148  0.97646025    -0.36000
N814        N  0.33042171  0.47637216  0.93243849    -0.56600
N815        N  0.33304206  0.02020856  0.97714103    -0.36000
N816        N  0.33306608  0.47565109  0.52117638    -0.56600
C817        C  0.32812044  0.41624164  0.95320294     0.27600
C818        C  0.32971649  0.41584336  0.49986003     0.27600
C819        C  0.32495361  0.03602747  0.95404730     0.27500
C820        C  0.32644717  0.03563133  0.50093484     0.27500
C821        C  0.33711139  0.45321961  0.91597687     0.36200
C822        C  0.33571136  0.00002878  0.91618835     0.36200
C823        C  0.34063771  0.45235619  0.53696727     0.36200
C824        C  0.33921792  0.99898566  0.53749021     0.36200
C825        C  0.31740859  0.38979625  0.96197301    -0.21300
C826        C  0.31847587  0.38951680  0.99146094    -0.21300
C827        C  0.31266157  0.06158409  0.96332228    -0.21300
C828        C  0.31365292  0.06135960  0.99289386    -0.21300
C829        C  0.34661351  0.46226914  0.88931746    -0.22400
C830        C  0.34568305  0.49167775  0.88943018    -0.22400
C831        C  0.35149552  0.46101784  0.56324454    -0.22400
C832        C  0.35062021  0.49035795  0.56356725    -0.22400
C833        C  0.33353692  0.42409452  0.92439826    -0.17700
C834        C  0.33662616  0.42342289  0.52839089    -0.17700
C835        C  0.33352780  0.02782294  0.52953276    -0.17700
C836        C  0.33052883  0.02886313  0.92495645    -0.17700
H837        H  0.30984712  0.37234288  0.94855361     0.15200
H838        H  0.31180586  0.37184675  0.50505102     0.15200
H839        H  0.30397318  0.07873119  0.95018835     0.15200
H840        H  0.30586365  0.07828873  0.50682312     0.15200
H841        H  0.35345201  0.44934955  0.87141237     0.13500
H842        H  0.35160646  0.00496767  0.87152796     0.13500
H843        H  0.35943816  0.44790673  0.58050942     0.13500
H844        H  0.35783112  0.00348222  0.58112553     0.13500
H845        H  0.34679230  0.45131476  0.97622948     0.26700
H846        H  0.34560243  0.00170317  0.97660257     0.26700
N847        N  0.43581260  0.32812368  0.97612571    -0.36000
N848        N  0.47915279  0.33028219  0.93105425    -0.56600
N849        N  0.02368058  0.33173934  0.97558940    -0.36000
N850        N  0.48064097  0.32933899  0.52070374    -0.56600
C851        C  0.42011794  0.33638655  0.95289250     0.27600
C852        C  0.42079005  0.33598027  0.49985867     0.27600
C853        C  0.04017865  0.32848331  0.95169047     0.27500
C854        C  0.04105689  0.32819350  0.49888669     0.27500
C855        C  0.45553457  0.32560317  0.91476959     0.36200
C856        C  0.00214768  0.32644205  0.91372364     0.36200
C857        C  0.45721698  0.32475289  0.53733082     0.36200
C858        C  0.00401739  0.32597281  0.53777641     0.36200
C859        C  0.39534046  0.34989112  0.96206339    -0.21300
C860        C  0.39577702  0.34961512  0.99143988    -0.21300
C861        C  0.06797443  0.32191133  0.96003515    -0.21300
C862        C  0.06853063  0.32174581  0.98943360    -0.21300
C863        C  0.46349262  0.31759562  0.88728269    -0.22400
C864        C  0.49277042  0.31842011  0.88644404    -0.22400
C865        C  0.46571759  0.31723629  0.56482083    -0.22400
C866        C  0.49501948  0.31844738  0.56530808    -0.22400
C867        C  0.42708352  0.33134128  0.92364371    -0.17700
C868        C  0.42847628  0.33035649  0.52889300    -0.17700
C869        C  0.03308196  0.32943308  0.52855068    -0.17700
C870        C  0.03121125  0.33030118  0.92236845    -0.17700
H871        H  0.37872461  0.35948749  0.94916217     0.15200
H872        H  0.37953970  0.35899910  0.50479559     0.15200
H873        H  0.08598795  0.31635885  0.94647900     0.15200
H874        H  0.08705061  0.31596219  0.50218596     0.15200
H875        H  0.44979808  0.31169014  0.86945619     0.13500
H876        H  0.00492691  0.31249343  0.86765703     0.13500
H877        H  0.45238807  0.31154180  0.58297816     0.13500
H878        H  0.00740480  0.31319129  0.58414989     0.13500
H879        H  0.45428597  0.31550462  0.97583404     0.26700
H880        H  0.00248172  0.33846712  0.97588779     0.26700
C881        C  0.20972499  0.07841627  0.62347580     0.24200
C882        C  0.19446250  0.09549653  0.60355521    -0.23900
C883        C  0.21016470  0.11262699  0.58413716     0.19100
C884        C  0.24007992  0.11207303  0.58388877     0.24100
C885        C  0.25542604  0.09434304  0.60300985    -0.23900
C886        C  0.23990640  0.07791069  0.62325742     0.19000
F887        F  0.25380673  0.06039081  0.64204270    -0.13800
F888        F  0.19554583  0.06114125  0.64226639    -0.16200
F889        F  0.25402436  0.12903463  0.56464504    -0.16200
F890        F  0.19658104  0.12993624  0.56494148    -0.13800
C891        C  0.33157969  0.24085525  0.57810067     0.24200
C892        C  0.34966925  0.25605826  0.59703968    -0.23900
C893        C  0.36524431  0.24059435  0.61782594     0.19100
C894        C  0.36462130  0.21053441  0.61820373     0.24100
C895        C  0.34810209  0.19515530  0.59802900    -0.23900
C896        C  0.33081036  0.21066652  0.57858129     0.19000
F897        F  0.31465555  0.19668934  0.55870284    -0.13800
F898        F  0.31598051  0.25505230  0.55790925    -0.16200
F899        F  0.38071150  0.19644681  0.63807260    -0.16200
F900        F  0.38150056  0.25459374  0.63762970    -0.13800
C901        C  0.08444531  0.21127798  0.61905737     0.24200
C902        C  0.10032790  0.19559613  0.59859042    -0.23900
C903        C  0.11830472  0.21070951  0.57956144     0.19100
C904        C  0.11969283  0.24080312  0.58030390     0.24100
C905        C  0.10293440  0.25664372  0.59996925    -0.23900
C906        C  0.08554322  0.24145762  0.61958224     0.19000
F907        F  0.06834868  0.25580264  0.63828185    -0.13800
F908        F  0.06761702  0.19742625  0.63847030    -0.16200
F909        F  0.13704071  0.25443219  0.56120614    -0.16200
F910        F  0.13352100  0.19645155  0.55914416    -0.13800
C911        C  0.24538796  0.33432619  0.58344980     0.24200
C912        C  0.26028082  0.35550744  0.59901564    -0.23900
C913        C  0.24475962  0.37597220  0.61483444     0.19100
C914        C  0.21477181  0.37601048  0.61409885     0.24100
C915        C  0.19971052  0.35545730  0.59753684    -0.23900
C916        C  0.21543006  0.33399599  0.58308338     0.19000
F917        F  0.20193658  0.31315852  0.56773918    -0.13800
F918        F  0.25989704  0.31398705  0.56833626    -0.16200
F919        F  0.20057642  0.39637263  0.62946601    -0.16200
F920        F  0.25862065  0.39687344  0.62982555    -0.13800
C921        C  0.12694840  0.37573349  0.71052307     0.24200
C922        C  0.11003810  0.35603621  0.69496748    -0.23900
C923        C  0.09485232  0.33471385  0.71015509     0.19100
C924        C  0.09352516  0.33538437  0.74016705     0.24100
C925        C  0.10820517  0.35681487  0.75570961    -0.23900
C926        C  0.12644334  0.37576037  0.74066647     0.19000
F927        F  0.14245929  0.39552567  0.75497144    -0.13800
F928        F  0.14242134  0.39625595  0.69668449    -0.16200
F929        F  0.07745244  0.31528806  0.75396991    -0.16200
F930        F  0.08063953  0.31356206  0.69587404    -0.13800
C931        C  0.10598754  0.07694620  0.74167340     0.24200
C932        C  0.09271019  0.09949607  0.75690628    -0.23900
C933        C  0.08128218  0.12290863  0.74146718     0.19100
C934        C  0.08205405  0.12315844  0.71138016     0.24100
C935        C  0.09394198  0.09978645  0.69618481    -0.23900
C936        C  0.10662622  0.07711212  0.71180686     0.19000
F937        F  0.11927602  0.05450537  0.69829424    -0.13800
F938        F  0.11798860  0.05417464  0.75553233    -0.16200
F939        F  0.07024081  0.14583010  0.69726652    -0.16200
F940        F  0.06824003  0.14503118  0.75534981    -0.13800
C941        C  0.11437550  0.21300024  0.87514497     0.24200
C942        C  0.09990215  0.19709142  0.85395913    -0.23900
C943        C  0.08702708  0.21187972  0.83088134     0.19100
C944        C  0.08746938  0.24206632  0.82970123     0.24100
C945        C  0.10077013  0.25813132  0.85170502    -0.23900
C946        C  0.11470275  0.24308302  0.87413731     0.19000
F947        F  0.12782537  0.25743683  0.89591995    -0.13800
F948        F  0.12671313  0.19955002  0.89794528    -0.16200
F949        F  0.07348172  0.25544680  0.80785259    -0.16200
F950        F  0.07355057  0.19706035  0.80964056    -0.13800
C951        C  0.33306982  0.08704321  0.71285849     0.24200
C952        C  0.35356524  0.10309285  0.69744688    -0.23900
C953        C  0.37229000  0.12130870  0.71277503     0.19100
C954        C  0.37195919  0.12174729  0.74290510     0.24100
C955        C  0.35304529  0.10383221  0.75826418    -0.23900
C956        C  0.33294029  0.08726296  0.74292355     0.19000
F957        F  0.31325601  0.07099826  0.75706768    -0.13800
F958        F  0.31316620  0.07097329  0.69882468    -0.16200
F959        F  0.39132734  0.13842077  0.75698753    -0.16200
F960        F  0.39204408  0.13753283  0.69873036    -0.13800
C961        C  0.23747163  0.11489019  0.86933923     0.24200
C962        C  0.25342392  0.09897055  0.84917352    -0.23900
C963        C  0.23841278  0.08507404  0.82668372     0.19100
C964        C  0.20816601  0.08491515  0.82613132     0.24100
C965        C  0.19233174  0.09917109  0.84772284    -0.23900
C966        C  0.20756382  0.11509143  0.86856252     0.19000
F967        F  0.19353594  0.13056524  0.88895690    -0.13800
F968        F  0.25075759  0.13018142  0.89035892    -0.16200
F969        F  0.19454674  0.06974892  0.80523214    -0.16200
F970        F  0.25286528  0.07070107  0.80580371    -0.13800
C971        C  0.37529493  0.33143422  0.74177355     0.24200
C972        C  0.35770650  0.35094882  0.75686317    -0.23900
C973        C  0.33985471  0.36959904  0.74101818     0.19100
C974        C  0.33997191  0.36913812  0.71097657     0.24100
C975        C  0.35828307  0.35035650  0.69584115    -0.23900
C976        C  0.37564873  0.33121114  0.71160386     0.19000
F977        F  0.39413242  0.31327583  0.69791546    -0.13800
F978        F  0.39337044  0.31358498  0.75613037    -0.16200
F979        F  0.32220721  0.38740711  0.69671104    -0.16200
F980        F  0.32237074  0.38866930  0.75453871    -0.13800
C981        C  0.24191539  0.36795643  0.83168233     0.24200
C982        C  0.25765188  0.35273850  0.85263897    -0.23900
C983        C  0.24248937  0.33602893  0.87292409     0.19100
C984        C  0.21246905  0.33580788  0.87323758     0.24100
C985        C  0.19683438  0.35288288  0.85377805    -0.23900
C986        C  0.21185135  0.36825398  0.83245660     0.19000
F987        F  0.19739458  0.38396114  0.81253047    -0.13800
F988        F  0.25551359  0.38380095  0.81128595    -0.16200
F989        F  0.19879914  0.32013799  0.89373505    -0.16200
F990        F  0.25668941  0.32041511  0.89310709    -0.13800
C991        C  0.33155128  0.21238212  0.87693585     0.24200
C992        C  0.34708858  0.19654175  0.85647104    -0.23900
C993        C  0.36250567  0.21125688  0.83499850     0.19100
C994        C  0.36395171  0.24127211  0.83516473     0.24100
C995        C  0.34959750  0.25707347  0.85656248    -0.23900
C996        C  0.33255325  0.24241039  0.87679121     0.19000
F997        F  0.31826896  0.25703284  0.89762106    -0.13800
F998        F  0.31702585  0.19886058  0.89833293    -0.16200
F999        F  0.37953942  0.25482983  0.81452435    -0.16200
F1000       F  0.37653513  0.19651187  0.81406164    -0.13800
O1001       O  0.37751534  0.79937325  0.35154513    -0.84800
O1002       O  0.36913093  0.83311838  0.30374617    -0.81800
C1003       C  0.35929798  0.85342819  0.28871032     0.98700
O1004       O  0.35188782  0.87676227  0.30053319    -0.81900
O1005       O  0.30407335  0.86519427  0.33418204    -0.84500
C1006       C  0.28933088  0.85606566  0.35507482     1.03200
O1007       O  0.30126105  0.85138665  0.37912083    -0.77300
O1008       O  0.33440698  0.80362561  0.37022417    -0.77500
C1009       C  0.35382408  0.78839800  0.35912614     1.03200
O1010       O  0.41015676  0.84537645  0.37716843    -0.84800
O1011       O  0.40514220  0.87728811  0.32810253    -0.81800
C1012       C  0.40008671  0.90261322  0.33679214     0.98700
O1013       O  0.37586703  0.90897819  0.34700135    -0.81900
O1014       O  0.32590318  0.90339995  0.37778153    -0.84500
C1015       C  0.33633732  0.90058396  0.40271282     1.03200
O1016       O  0.34862371  0.87741035  0.40955149    -0.77300
O1017       O  0.37877146  0.82635687  0.40612414    -0.77400
C1018       C  0.40413136  0.83453965  0.40118528     1.03100
Cr1019     Cr  0.38796333  0.83990845  0.34138118     1.93700
Cr1020     Cr  0.34067206  0.88606311  0.34099879     1.93200
Cr1021     Cr  0.34191777  0.84088632  0.38874698     1.39100
O1022       O  0.35677418  0.85533928  0.35679743    -1.22500
O1023       O  0.36542108  0.62070509  0.30504484    -0.84800
O1024       O  0.37379913  0.65374454  0.35314528    -0.81800
C1025       C  0.34995502  0.66510774  0.35927451     0.98700
O1026       O  0.32965030  0.65011695  0.36911389    -0.81900
O1027       O  0.29626034  0.60177381  0.37726354    -0.84500
C1028       C  0.28512597  0.59574826  0.35307503     1.03200
O1029       O  0.30063425  0.58579228  0.33319190    -0.77300
O1030       O  0.34939788  0.57654434  0.30109766    -0.77500
C1031       C  0.35567197  0.60051835  0.28981337     1.03200
O1032       O  0.40208937  0.57666237  0.32870164    -0.84800
O1033       O  0.40553572  0.60772382  0.37868129    -0.81800
C1034       C  0.39882847  0.61900270  0.40232163     0.98700
O1035       O  0.37326732  0.62727188  0.40657112    -0.81900
O1036       O  0.34254633  0.57668251  0.41028879    -0.84500
C1037       C  0.33204603  0.55269825  0.40326451     1.03200
O1038       O  0.32283703  0.54898230  0.37794797    -0.77300
O1039       O  0.37380248  0.54460834  0.34810313    -0.77400
C1040       C  0.39787689  0.55134160  0.33775813     1.03100
Cr1041     Cr  0.38412548  0.61350478  0.34255514     1.93700
Cr1042     Cr  0.33657831  0.61275678  0.38835601     1.93200
Cr1043     Cr  0.33785720  0.56648627  0.34129030     1.39100
O1044       O  0.35268441  0.59780159  0.35722486    -1.22500
O1045       O  0.14933489  0.60238186  0.37476904    -0.84800
O1046       O  0.11579461  0.65059176  0.36861184    -0.81800
C1047       C  0.09625266  0.66552965  0.35721969     0.98700
O1048       O  0.07285079  0.65408758  0.34952584    -0.81900
O1049       O  0.08138833  0.61879508  0.30309543    -0.84500
C1050       C  0.08977162  0.59759857  0.28848788     1.03200
O1051       O  0.09461800  0.57385042  0.30065198    -0.77300
O1052       O  0.14513106  0.58561985  0.33080020    -0.77500
C1053       C  0.16054779  0.59596482  0.35073422     1.03200
O1054       O  0.10412125  0.57598202  0.40792302    -0.84800
O1055       O  0.07291496  0.62613814  0.40564809    -0.81800
C1056       C  0.04722738  0.61879499  0.40088895     0.98700
O1057       O  0.04023211  0.60905919  0.37665814    -0.81900
O1058       O  0.04432780  0.57569139  0.32879881    -0.84500
C1059       C  0.04854111  0.55072347  0.33896870     1.03200
O1060       O  0.07273066  0.54408000  0.34938880    -0.77300
O1061       O  0.12576630  0.54999817  0.37599418    -0.77400
C1062       C  0.11789575  0.55358808  0.40153846     1.03100
Cr1063     Cr  0.10934544  0.61257814  0.38682361     1.93700
Cr1064     Cr  0.06221865  0.61328385  0.34064113     1.93200
Cr1065     Cr  0.10823637  0.56599161  0.34034030     1.39100
O1066       O  0.09343657  0.59770837  0.35575904    -1.22500
O1067       O  0.10267064  0.80248706  0.37691496    -0.84800
O1068       O  0.15045615  0.83622334  0.36749301    -0.81800
C1069       C  0.16533967  0.85638703  0.35703095     0.98700
O1070       O  0.15385728  0.88035405  0.35066327    -0.81900
O1071       O  0.12132747  0.87273456  0.30255850    -0.84500
C1072       C  0.10293007  0.86045686  0.28698509     1.03200
O1073       O  0.07932031  0.85221254  0.29755382    -0.77300
O1074       O  0.08969668  0.80467967  0.33185360    -0.77500
C1075       C  0.09805684  0.79007916  0.35318228     1.03200
O1076       O  0.07638630  0.84932706  0.40683479    -0.84800
O1077       O  0.12725355  0.87997115  0.40375661    -0.81800
C1078       C  0.11783667  0.90516963  0.40014386     0.98700
O1079       O  0.10643412  0.91195756  0.37657122    -0.81900
O1080       O  0.07570823  0.90758504  0.32716480    -0.84500
C1081       C  0.05023981  0.90158636  0.33446542     1.03200
O1082       O  0.04443611  0.87629913  0.34247850    -0.77300
O1083       O  0.05112640  0.82678986  0.37458269    -0.77400
C1084       C  0.05393828  0.83578269  0.40007474     1.03100
Cr1085     Cr  0.11300254  0.84320899  0.38618985     1.93700
Cr1086     Cr  0.11318169  0.89056701  0.34031810     1.93200
Cr1087     Cr  0.06857402  0.84147325  0.33780092     1.39100
O1088       O  0.09843296  0.85834354  0.35444161    -1.22500
O1089       O  0.15385384  0.83655787  0.08418707    -0.84800
O1090       O  0.10720550  0.80079193  0.07436462    -0.81800
C1091       C  0.10146550  0.78862953  0.09802333     0.98700
O1092       O  0.09272340  0.80345090  0.11900321    -0.81900
O1093       O  0.08204622  0.85108056  0.15277304    -0.84500
C1094       C  0.10561787  0.85926302  0.16354259     1.03200
O1095       O  0.12430979  0.87128313  0.14804972    -0.77300
O1096       O  0.15574675  0.88125786  0.09921367    -0.77500
C1097       C  0.16810025  0.85757564  0.09390923     1.03200
O1098       O  0.12903826  0.87932091  0.04718805    -0.84800
O1099       O  0.07956116  0.84663160  0.04350111    -0.81800
C1100       C  0.05671959  0.83378604  0.05047087     0.98700
O1101       O  0.05407718  0.82472250  0.07595138    -0.81900
O1102       O  0.04691688  0.87449285  0.10760970    -0.84500
C1103       C  0.05250328  0.89936226  0.11694203     1.03200
O1104       O  0.07775611  0.90490827  0.12499307    -0.77300
O1105       O  0.10677303  0.91035470  0.07446782    -0.77400
C1106       C  0.11848679  0.90410038  0.05088656     1.03100
Cr1107     Cr  0.11628785  0.84192399  0.06478734     1.93700
Cr1108     Cr  0.07132644  0.83986324  0.11266917     1.93200
Cr1109     Cr  0.11509424  0.88934612  0.11053977     1.39100
O1110       O  0.10108731  0.85687257  0.09627168    -1.22500
O1111       O  0.33511721  0.80299260  0.08248149    -0.84800
O1112       O  0.30355185  0.85189725  0.07306831    -0.81800
C1113       C  0.29171413  0.85745136  0.09689785     0.98700
O1114       O  0.30639500  0.86606393  0.11799478    -0.81900
O1115       O  0.35390739  0.87610766  0.15214479    -0.84500
C1116       C  0.36071170  0.85265080  0.16405440     1.03200
O1117       O  0.37058538  0.83219438  0.14921348    -0.77300
O1118       O  0.37812457  0.79821689  0.10122184    -0.77500
C1119       C  0.35423178  0.78747623  0.09377968     1.03200
O1120       O  0.38041721  0.82483032  0.04694400    -0.84800
O1121       O  0.35132209  0.87662842  0.04324508    -0.81800
C1122       C  0.33950525  0.90003808  0.05003364     0.98700
O1123       O  0.32939013  0.90333115  0.07498072    -0.81900
O1124       O  0.37890756  0.90782022  0.10615854    -0.84500
C1125       C  0.40291000  0.90104009  0.11644450     1.03200
O1126       O  0.40768188  0.87553728  0.12481590    -0.77300
O1127       O  0.41195520  0.84377262  0.07574127    -0.77400
C1128       C  0.40579565  0.83307447  0.05170326     1.03100
Cr1129     Cr  0.34379295  0.84025524  0.06398660     1.93700
Cr1130     Cr  0.34338299  0.88573325  0.11169731     1.93200
Cr1131     Cr  0.38960830  0.83854354  0.11150371     1.39100
O1132       O  0.35878839  0.85457350  0.09601181    -1.22500
O1133       O  0.11716828  0.64892236  0.08580074    -0.84800
O1134       O  0.15107653  0.60098391  0.07727017    -0.81800
C1135       C  0.16259484  0.59399898  0.10098707     0.98700
O1136       O  0.14726406  0.58451301  0.12129698    -0.81900
O1137       O  0.09781060  0.57394705  0.15266579    -0.84500
C1138       C  0.09157957  0.59760834  0.16449961     1.03200
O1139       O  0.08209875  0.61821498  0.14962334    -0.77300
O1140       O  0.07311719  0.65231021  0.10198615    -0.77500
C1141       C  0.09690540  0.66392182  0.09575960     1.03200
O1142       O  0.07411222  0.62556027  0.04790368    -0.84800
O1143       O  0.10509985  0.57548778  0.04479930    -0.81800
C1144       C  0.11850889  0.55282994  0.05104393     0.98700
O1145       O  0.12653974  0.54886670  0.07655165    -0.81900
O1146       O  0.07507578  0.54218644  0.10524720    -0.84500
C1147       C  0.05108217  0.54866637  0.11604428     1.03200
O1148       O  0.04664453  0.57386296  0.12537686    -0.77300
O1149       O  0.04210850  0.60545664  0.07560614    -0.77400
C1150       C  0.04876577  0.61670792  0.05189515     1.03100
Cr1151     Cr  0.11072959  0.61158085  0.06636657     1.93700
Cr1152     Cr  0.11034378  0.56489739  0.11283087     1.93200
Cr1153     Cr  0.06345554  0.61136377  0.11198837     1.39100
O1154       O  0.09505352  0.59625538  0.09732295    -1.22500
O1155       O  0.37514495  0.65218116  0.10227808    -0.84800
O1156       O  0.36710193  0.61902696  0.15062072    -0.81800
C1157       C  0.35667285  0.59918321  0.16590661     0.98700
O1158       O  0.35008569  0.57517400  0.15478082    -0.81900
O1159       O  0.30225470  0.58287509  0.12087844    -0.84500
C1160       C  0.28717307  0.59213564  0.10035086     1.03200
O1161       O  0.29888840  0.59873512  0.07667059    -0.77300
O1162       O  0.33118795  0.64805968  0.08588924    -0.77500
C1163       C  0.35127036  0.66344090  0.09568243     1.03200
O1164       O  0.40771522  0.60585443  0.07701437    -0.84800
O1165       O  0.40433109  0.57519992  0.12755614    -0.81800
C1166       C  0.40026148  0.54963895  0.11908088     0.98700
O1167       O  0.37624311  0.54260623  0.10886505    -0.81900
O1168       O  0.32654538  0.54651105  0.07711406    -0.84500
C1169       C  0.33554064  0.55088776  0.05179633     1.03200
O1170       O  0.34611052  0.57489347  0.04517857    -0.77300
O1171       O  0.37554799  0.62581052  0.04936008    -0.77400
C1172       C  0.40091246  0.61703315  0.05329101     1.03100
Cr1173     Cr  0.38603524  0.61184356  0.11318123     1.93700
Cr1174     Cr  0.34002413  0.56435403  0.11423343     1.93200
Cr1175     Cr  0.33908267  0.61065524  0.06690620     1.39100
O1176       O  0.35482479  0.59582374  0.09838912    -1.22500
N1177       N  0.43268741  0.97557332  0.11950091    -0.36000
N1178       N  0.47761145  0.93034682  0.12112698    -0.56600
N1179       N  0.02077005  0.97435064  0.11813234    -0.36000
N1180       N  0.47588672  0.51934210  0.12167291    -0.56600
C1181       C  0.41759441  0.95175221  0.12640794     0.27600
C1182       C  0.41661761  0.49865183  0.12703111     0.27600
C1183       C  0.03625342  0.95105841  0.12650690     0.27500
C1184       C  0.03555283  0.49812365  0.12588165     0.27500
C1185       C  0.45411071  0.91609580  0.11178169     0.36200
C1186       C  0.00062949  0.91541534  0.11129803     0.36200
C1187       C  0.45255739  0.53568120  0.11540863     0.36200
C1188       C  0.99910555  0.53482472  0.11350755     0.36200
C1189       C  0.39172937  0.95971535  0.13884970    -0.21300
C1190       C  0.39111390  0.98935032  0.13923429    -0.21300
C1191       C  0.06081068  0.96050236  0.14069071    -0.21300
C1192       C  0.06046209  0.99013782  0.13995937    -0.21300
C1193       C  0.46215387  0.89256050  0.09559671    -0.22400
C1194       C  0.49145415  0.89214268  0.09504461    -0.22400
C1195       C  0.46108547  0.56144104  0.10330424    -0.22400
C1196       C  0.49035285  0.56083674  0.10198937    -0.22400
C1197       C  0.42556969  0.92339886  0.11882555    -0.17700
C1198       C  0.42377827  0.52763341  0.12103074    -0.17700
C1199       C  0.02798846  0.52659307  0.11836218    -0.17700
C1200       C  0.02940943  0.92219695  0.11863254    -0.17700
H1201       H  0.37484715  0.94569659  0.14652423     0.15200
H1202       H  0.37376037  0.50247228  0.14738774     0.15200
H1203       H  0.07738389  0.94792601  0.15093227     0.15200
H1204       H  0.07670689  0.50420892  0.14886718     0.15200
H1205       H  0.44846023  0.87790426  0.08425154     0.13500
H1206       H  0.00396808  0.87700120  0.08274920     0.13500
H1207       H  0.44789157  0.57883515  0.09576307     0.13500
H1208       H  0.00338038  0.57778787  0.09338445     0.13500
H1209       H  0.45120722  0.97587179  0.10698963     0.26700
H1210       H  0.00293709  0.97421942  0.10459771     0.26700
N1211       N  0.01820564  0.97643259  0.33641219    -0.36000
N1212       N  0.47330419  0.52126624  0.33493400    -0.56600
N1213       N  0.43010251  0.97722238  0.33521342    -0.36000
N1214       N  0.47493510  0.93233723  0.33193455    -0.56600
C1215       C  0.03262264  0.50049294  0.32881116     0.27600
C1216       C  0.03347527  0.95350195  0.32676293     0.27600
C1217       C  0.41395857  0.50056495  0.32875619     0.27500
C1218       C  0.41476350  0.95366244  0.32797026     0.27500
C1219       C  0.49655244  0.53658592  0.34330757     0.36200
C1220       C  0.44995507  0.53715913  0.34200844     0.36200
C1221       C  0.49817091  0.91718097  0.34098794     0.36200
C1222       C  0.45155219  0.91759422  0.34093984     0.36200
C1223       C  0.05700224  0.99302944  0.31356620    -0.21300
C1224       C  0.05746362  0.96342820  0.31203542    -0.21300
C1225       C  0.38820126  0.99170543  0.31672415    -0.21300
C1226       C  0.38869735  0.96206761  0.31624453    -0.21300
C1227       C  0.48787230  0.56204621  0.35598961    -0.22400
C1228       C  0.45851119  0.56246756  0.35506848    -0.22400
C1229       C  0.48926227  0.89325910  0.35642942    -0.22400
C1230       C  0.45996083  0.89350270  0.35610343    -0.22400
C1231       C  0.02530702  0.52870937  0.33735668    -0.17700
C1232       C  0.02692548  0.92437440  0.33369281    -0.17700
C1233       C  0.42277182  0.92511108  0.33473195    -0.17700
C1234       C  0.42120764  0.52927429  0.33586528    -0.17700
H1235       H  0.07279168  0.50743904  0.30439462     0.15200
H1236       H  0.07364479  0.95110247  0.30090476     0.15200
H1237       H  0.37066823  0.50509743  0.30938798     0.15200
H1238       H  0.37157292  0.94835144  0.30856473     0.15200
H1239       H  0.00107745  0.57864380  0.36503037     0.13500
H1240       H  0.44526304  0.57940946  0.36339445     0.13500
H1241       H  0.00194600  0.87772824  0.36807665     0.13500
H1242       H  0.44655381  0.87833110  0.36702528     0.13500
H1243       H  0.50078419  0.97574758  0.35047707     0.26700
H1244       H  0.44884684  0.97709207  0.34738836     0.26700
N1245       N  0.12162381  0.97919957  0.43184026    -0.36000
N1246       N  0.12299015  0.93437928  0.47573441    -0.56600
N1247       N  0.12148839  0.97863375  0.02007471    -0.36000
N1248       N  0.12489213  0.52289156  0.47611844    -0.56600
C1249       C  0.12781311  0.95552965  0.41605000     0.27600
C1250       C  0.12906595  0.50242564  0.41592794     0.27600
C1251       C  0.12730536  0.95480799  0.03580261     0.27500
C1252       C  0.12868155  0.50168047  0.03633729     0.27500
C1253       C  0.11561239  0.91866477  0.45235217     0.36200
C1254       C  0.11575557  0.91833296  0.99892059     0.36200
C1255       C  0.12566178  0.54051568  0.45297558     0.36200
C1256       C  0.12584231  0.54023170  0.99944847     0.36200
C1257       C  0.13997906  0.96367929  0.39016098    -0.21300
C1258       C  0.14077428  0.99320176  0.39001674    -0.21300
C1259       C  0.13879329  0.96267813  0.06207582    -0.21300
C1260       C  0.13970196  0.99213098  0.06247436    -0.21300
C1261       C  0.10368890  0.89277708  0.46082428    -0.22400
C1262       C  0.10379038  0.89255905  0.49019164    -0.22400
C1263       C  0.12940416  0.56879103  0.46169299    -0.22400
C1264       C  0.12955943  0.56861016  0.49094623    -0.22400
C1265       C  0.12061493  0.92697547  0.42353386    -0.17700
C1266       C  0.12438250  0.53150238  0.42398368    -0.17700
C1267       C  0.12452742  0.53089115  0.02839307    -0.17700
C1268       C  0.12066714  0.92627809  0.02781938    -0.17700
H1269       H  0.14763483  0.94980944  0.37311285     0.15200
H1270       H  0.15002987  0.50591904  0.37294600     0.15200
H1271       H  0.14613110  0.94868748  0.07917889     0.12800
H1272       H  0.14877136  0.50447514  0.07988909     0.15200
H1273       H  0.09545372  0.87582904  0.44746694     0.13500
H1274       H  0.09557769  0.87552358  0.00341082     0.13500
H1275       H  0.13315409  0.58766666  0.44861407     0.13500
H1276       H  0.13348652  0.58736871  0.00413482     0.13500
H1277       H  0.10956847  0.97953066  0.45067552     0.26700
H1278       H  0.10997620  0.97917671  0.00090768     0.26700
N1279       N  0.42950931  0.62432926  0.47754304    -0.36000
N1280       N  0.47455894  0.62077396  0.02102554    -0.56600
N1281       N  0.01836832  0.62379288  0.47663886    -0.36000
N1282       N  0.47324158  0.62283831  0.43297306    -0.56600
C1283       C  0.41482915  0.61534367  0.00103980     0.27600
C1284       C  0.41406607  0.61645430  0.45411708     0.27600
C1285       C  0.03353141  0.61469799  0.99981673     0.27500
C1286       C  0.03278066  0.61520060  0.45284543     0.27500
C1287       C  0.45152498  0.62654521  0.03774439     0.36200
C1288       C  0.99797922  0.62666820  0.03718597     0.36200
C1289       C  0.44980631  0.62889544  0.41685741     0.36200
C1290       C  0.99639073  0.62840696  0.41629889     0.36200
C1291       C  0.39000496  0.60153421  0.49235042    -0.21300
C1292       C  0.38952751  0.60219288  0.46289927    -0.21300
C1293       C  0.05762915  0.59997630  0.49065524    -0.21300
C1294       C  0.05710605  0.60019952  0.46111882    -0.21300
C1295       C  0.46035806  0.63666396  0.06434358    -0.22400
C1296       C  0.48976484  0.63679364  0.06396906    -0.22400
C1297       C  0.45812178  0.63896072  0.39005765    -0.22400
C1298       C  0.48757121  0.63866763  0.38970151    -0.22400
C1299       C  0.42287430  0.62021763  0.03005140    -0.17700
C1300       C  0.42126597  0.62242689  0.42512699    -0.17700
C1301       C  0.02502650  0.62152326  0.42399768    -0.17700
C1302       C  0.02641266  0.62007754  0.02895830    -0.17700
H1303       H  0.37398977  0.59151899  0.00555952     0.15200
H1304       H  0.37313769  0.59268902  0.44967432     0.15200
H1305       H  0.07353938  0.58950792  0.00376892     0.15200
H1306       H  0.07257786  0.58986354  0.44744290     0.15200
H1307       H  0.44708412  0.64314532  0.08228411     0.13500
H1308       H  0.00345732  0.64336528  0.08156893     0.13500
H1309       H  0.44447368  0.64551800  0.37240750     0.13500
H1310       H  0.00082498  0.64504593  0.37170167     0.13500
H1311       H  0.44775289  0.63744451  0.47757790     0.26700
H1312       H  0.00053858  0.63746732  0.47703147     0.26700
N1313       N  0.33525309  0.93213750  0.47643515    -0.36000
N1314       N  0.33038324  0.97637958  0.43241296    -0.56600
N1315       N  0.33305148  0.52021044  0.47711266    -0.36000
N1316       N  0.33303290  0.97565193  0.02120452    -0.56600
C1317       C  0.32807705  0.91625431  0.45318102     0.27600
C1318       C  0.32972834  0.91583893  0.99988117     0.27600
C1319       C  0.32494808  0.53602900  0.45402362     0.27500
C1320       C  0.32642868  0.53563372  0.00095014     0.27500
C1321       C  0.33706214  0.95322655  0.41594860     0.36200
C1322       C  0.33567792  0.50003382  0.41615613     0.36200
C1323       C  0.34060485  0.95235825  0.03699681     0.36200
C1324       C  0.33916705  0.49898878  0.03751868     0.36200
C1325       C  0.31735796  0.88981359  0.46195550    -0.21300
C1326       C  0.31844792  0.88952902  0.49144322    -0.21300
C1327       C  0.31265462  0.56158192  0.46330577    -0.21300
C1328       C  0.31365972  0.56135569  0.49287713    -0.21300
C1329       C  0.34655699  0.96227427  0.38928544    -0.22400
C1330       C  0.34563445  0.99168331  0.38939962    -0.22400
C1331       C  0.35144801  0.96102010  0.06328008    -0.22400
C1332       C  0.35056476  0.99035934  0.06360534    -0.22400
C1333       C  0.33348888  0.92410324  0.42437426    -0.17700
C1334       C  0.33661459  0.92342440  0.02841449    -0.17700
C1335       C  0.33349359  0.52782689  0.02955154    -0.17700
C1336       C  0.33051089  0.52886838  0.42492950    -0.17700
H1337       H  0.30978142  0.87236537  0.44853785     0.15200
H1338       H  0.31183530  0.87183311  0.00506316     0.15200
H1339       H  0.30395578  0.57872709  0.45017617     0.15200
H1340       H  0.30585241  0.57829703  0.00682342     0.15200
H1341       H  0.35338641  0.94935355  0.37137722     0.13500
H1342       H  0.35155954  0.50496880  0.37148946     0.13500
H1343       H  0.35939053  0.94790952  0.08054594     0.13500
H1344       H  0.35774343  0.50348768  0.08117105     0.13500
H1345       H  0.34678441  0.95131432  0.47619663     0.26700
H1346       H  0.34561432  0.50170655  0.47656621     0.26700
N1347       N  0.43581290  0.82812205  0.47611416    -0.36000
N1348       N  0.47914673  0.83024257  0.43105510    -0.56600
N1349       N  0.02367577  0.83176363  0.47559931    -0.36000
N1350       N  0.48063827  0.82930914  0.02070626    -0.56600
C1351       C  0.42012507  0.83639957  0.45288145     0.27600
C1352       C  0.42078957  0.83595633  0.99986689     0.27600
C1353       C  0.04016831  0.82848395  0.45170053     0.27500
C1354       C  0.04105596  0.82819727  0.99887933     0.27500
C1355       C  0.45552872  0.82556775  0.41476795     0.36200
C1356       C  0.00213554  0.82643013  0.41373918     0.36200
C1357       C  0.45721598  0.82474144  0.03734131     0.36200
C1358       C  0.00401525  0.82597231  0.03777334     0.36200
C1359       C  0.39536481  0.84993625  0.46205184    -0.21300
C1360       C  0.39580293  0.84965940  0.49142919    -0.21300
C1361       C  0.06795933  0.82188992  0.46004308    -0.21300
C1362       C  0.06851909  0.82173355  0.48944158    -0.21300
C1363       C  0.46348723  0.81754456  0.38728639    -0.22400
C1364       C  0.49276673  0.81835797  0.38645289    -0.22400
C1365       C  0.46571855  0.81723245  0.06483228    -0.22400
C1366       C  0.49502132  0.81842466  0.06531016    -0.22400
C1367       C  0.42708119  0.83133442  0.42363463    -0.17700
C1368       C  0.42847585  0.83034705  0.02890445    -0.17700
C1369       C  0.03307941  0.82943233  0.02854377    -0.17700
C1370       C  0.03119906  0.83029718  0.42238010    -0.17700
H1371       H  0.37876045  0.85955226  0.44914899     0.15200
H1372       H  0.37953001  0.85896249  0.00479728     0.15200
H1373       H  0.08596506  0.81631700  0.44648465     0.15200
H1374       H  0.08705239  0.81597533  0.00217903     0.15200
H1375       H  0.44979161  0.81164206  0.36945968     0.13500
H1376       H  0.00491689  0.81241856  0.36769340     0.13500
H1377       H  0.45239037  0.81155345  0.08299540     0.13500
H1378       H  0.00740599  0.81320772  0.08415231     0.13500
H1379       H  0.45427097  0.81548005  0.47582547     0.26700
H1380       H  0.00248282  0.83851215  0.47589608     0.26700
C1381       C  0.20970572  0.57842418  0.12349505     0.24200
C1382       C  0.19444304  0.59549396  0.10356504    -0.23900
C1383       C  0.21014514  0.61261529  0.08413950     0.19100
C1384       C  0.24005960  0.61206791  0.08389615     0.24100
C1385       C  0.25540724  0.59434611  0.10302272    -0.23900
C1386       C  0.23988811  0.57791829  0.12327562     0.19000
F1387       F  0.25378943  0.56040613  0.14206752    -0.13800
F1388       F  0.19552606  0.56116391  0.14229915    -0.16200
F1389       F  0.25400224  0.62903118  0.06465295    -0.16200
F1390       F  0.19656220  0.62991227  0.06493241    -0.13800
C1391       C  0.33158650  0.74086589  0.07804223     0.24200
C1392       C  0.34964984  0.75606678  0.09700782    -0.23900
C1393       C  0.36520530  0.74060390  0.11780756     0.19100
C1394       C  0.36458475  0.71054541  0.11818194     0.24100
C1395       C  0.34808751  0.69516738  0.09798918    -0.23900
C1396       C  0.33082377  0.71067728  0.07851528     0.19000
F1397       F  0.31470985  0.69669941  0.05860383    -0.13800
F1398       F  0.31601035  0.75506523  0.05783407    -0.16200
F1399       F  0.38065756  0.69645801  0.13806475    -0.16200
F1400       F  0.38143980  0.75460412  0.13762866    -0.13800
C1401       C  0.08436783  0.71129293  0.11899765     0.24200
C1402       C  0.10029906  0.69560652  0.09857116    -0.23900
C1403       C  0.11832414  0.71071763  0.07958515     0.19100
C1404       C  0.11971409  0.74081201  0.08033013     0.24100
C1405       C  0.10292090  0.75665438  0.09996435    -0.23900
C1406       C  0.08547931  0.74147149  0.11953302     0.19000
F1407       F  0.06824167  0.75582090  0.13818923    -0.13800
F1408       F  0.06747116  0.69744812  0.13835551    -0.16200
F1409       F  0.13709295  0.75444067  0.06126026    -0.16200
F1410       F  0.13358376  0.69645775  0.05920169    -0.13800
C1411       C  0.24537276  0.83431749  0.08343926     0.24200
C1412       C  0.26026820  0.85549324  0.09901002    -0.23900
C1413       C  0.24475045  0.87594938  0.11484321     0.19100
C1414       C  0.21476354  0.87599354  0.11410752     0.24100
C1415       C  0.19969990  0.85545086  0.09753577    -0.23900
C1416       C  0.21541489  0.83399061  0.08307589     0.19000
F1417       F  0.20191659  0.81315633  0.06773136    -0.13800
F1418       F  0.25987852  0.81397818  0.06832291    -0.16200
F1419       F  0.20057156  0.89634936  0.12948629    -0.16200
F1420       F  0.25861449  0.89683515  0.12985285    -0.13800
C1421       C  0.12691736  0.87574765  0.21052674     0.24200
C1422       C  0.11000945  0.85605185  0.19496642    -0.23900
C1423       C  0.09482437  0.83472557  0.21014931     0.19100
C1424       C  0.09350711  0.83538111  0.24016210     0.24100
C1425       C  0.10819214  0.85680358  0.25571105    -0.23900
C1426       C  0.12641872  0.87576261  0.24067060     0.19000
F1427       F  0.14242728  0.89553113  0.25497959    -0.13800
F1428       F  0.14238120  0.89628017  0.19669287    -0.16200
F1429       F  0.07743634  0.81527942  0.25395941    -0.16200
F1430       F  0.08060244  0.81358359  0.19586308    -0.13800
C1431       C  0.10611794  0.57708194  0.24167026     0.24200
C1432       C  0.09269570  0.59954464  0.25690305    -0.23900
C1433       C  0.08111720  0.62288231  0.24146402     0.19100
C1434       C  0.08188908  0.62313881  0.21137632     0.24100
C1435       C  0.09392351  0.59984324  0.19617962    -0.23900
C1436       C  0.10675706  0.57725358  0.21180077     0.19000
F1437       F  0.11956361  0.55474026  0.19828127    -0.13800
F1438       F  0.11826745  0.55439368  0.25553518    -0.16200
F1439       F  0.06992308  0.64572959  0.19726275    -0.16200
F1440       F  0.06791663  0.64490940  0.25534763    -0.13800
C1441       C  0.11428706  0.71299405  0.37525932     0.24200
C1442       C  0.09990668  0.69708167  0.35401485    -0.23900
C1443       C  0.08710370  0.71186176  0.33089381     0.19100
C1444       C  0.08754094  0.74204713  0.32971119     0.24100
C1445       C  0.10075313  0.75811858  0.35176369    -0.23900
C1446       C  0.11459826  0.74307610  0.37425694     0.19000
F1447       F  0.12761053  0.75743178  0.39610501    -0.13800
F1448       F  0.12653848  0.69954686  0.39810852    -0.16200
F1449       F  0.07363606  0.75541899  0.30780455    -0.16200
F1450       F  0.07370090  0.69703356  0.30961244    -0.13800
C1451       C  0.33305690  0.58709093  0.21285230     0.24200
C1452       C  0.35356137  0.60312573  0.19743862    -0.23900
C1453       C  0.37230585  0.62132317  0.21276348     0.19100
C1454       C  0.37198152  0.62175994  0.24289373     0.24100
C1455       C  0.35305796  0.60385700  0.25825504    -0.23900
C1456       C  0.33293894  0.58730202  0.24291721     0.19000
F1457       F  0.31325174  0.57104322  0.25706394    -0.13800
F1458       F  0.31313224  0.57104586  0.19881993    -0.16200
F1459       F  0.39136485  0.63841746  0.25697379    -0.16200
F1460       F  0.39207242  0.63752841  0.19871464    -0.13800
C1461       C  0.23746897  0.61489058  0.36933736     0.24200
C1462       C  0.25342295  0.59899551  0.34915403    -0.23900
C1463       C  0.23841166  0.58512000  0.32665077     0.19100
C1464       C  0.20816369  0.58495694  0.32610112     0.24100
C1465       C  0.19232885  0.59917855  0.34771583    -0.23900
C1466       C  0.20756108  0.61507985  0.36856965     0.19000
F1467       F  0.19353377  0.63052422  0.38898643    -0.13800
F1468       F  0.25075382  0.63016801  0.39036759    -0.16200
F1469       F  0.19454426  0.56982249  0.30517891    -0.16200
F1470       F  0.25286520  0.57077214  0.30575409    -0.13800
C1471       C  0.37526627  0.83141589  0.24177513     0.24200
C1472       C  0.35767798  0.85093230  0.25686182    -0.23900
C1473       C  0.33981892  0.86957459  0.24101709     0.19100
C1474       C  0.33992929  0.86910483  0.21097641     0.24100
C1475       C  0.35824623  0.85032739  0.19584288    -0.23900
C1476       C  0.37561899  0.83118915  0.21160602     0.19000
F1477       F  0.39411203  0.81326246  0.19791901    -0.13800
F1478       F  0.39334565  0.81357241  0.25613431    -0.16200
F1479       F  0.32215619  0.88736464  0.19670963    -0.16200
F1480       F  0.32233638  0.88864664  0.25453706    -0.13800
C1481       C  0.24190479  0.86797115  0.33166692     0.24200
C1482       C  0.25764300  0.85272289  0.35260015    -0.23900
C1483       C  0.24248235  0.83598209  0.37285972     0.19100
C1484       C  0.21246174  0.83575754  0.37317375     0.24100
C1485       C  0.19682382  0.85287454  0.35375323    -0.23900
C1486       C  0.21184008  0.86827960  0.33245356     0.19000
F1487       F  0.19738344  0.88403256  0.31256337    -0.13800
F1488       F  0.25550300  0.88383650  0.31128632    -0.16200
F1489       F  0.19879518  0.82004102  0.39363737    -0.16200
F1490       F  0.25668541  0.82034075  0.39301907    -0.13800
C1491       C  0.33161927  0.71238341  0.37701674     0.24200
C1492       C  0.34708884  0.69655038  0.35649571    -0.23900
C1493       C  0.36243936  0.71126836  0.33497847     0.19100
C1494       C  0.36388124  0.74128324  0.33514470     0.24100
C1495       C  0.34959019  0.75707724  0.35658888    -0.23900
C1496       C  0.33261621  0.74241083  0.37687355     0.19000
F1497       F  0.31839884  0.75702989  0.39775195    -0.13800
F1498       F  0.31716837  0.69885404  0.39845988    -0.16200
F1499       F  0.37939747  0.75484976  0.31445604    -0.16200
F1500       F  0.37640153  0.69652654  0.31399439    -0.13800
O1501       O  0.37752597  0.79937578  0.85154757    -0.84800
O1502       O  0.36916112  0.83312820  0.80374183    -0.81800
C1503       C  0.35932061  0.85343800  0.78870920     0.98700
O1504       O  0.35189144  0.87676405  0.80053798    -0.81900
O1505       O  0.30408214  0.86520798  0.83419794    -0.84500
C1506       C  0.28934303  0.85607978  0.85509293     1.03200
O1507       O  0.30127708  0.85139768  0.87913556    -0.77300
O1508       O  0.33441111  0.80362728  0.87021100    -0.77500
C1509       C  0.35383080  0.78839851  0.85911693     1.03200
O1510       O  0.41015394  0.84539567  0.87718178    -0.84800
O1511       O  0.40516138  0.87729011  0.82811304    -0.81800
C1512       C  0.40010497  0.90261395  0.83680212     0.98700
O1513       O  0.37588316  0.90898030  0.84700391    -0.81900
O1514       O  0.32593452  0.90340498  0.87779743    -0.84500
C1515       C  0.33637673  0.90058075  0.90272483     1.03200
O1516       O  0.34865401  0.87740005  0.90955652    -0.77300
O1517       O  0.37877954  0.82633351  0.90611640    -0.77400
C1518       C  0.40413341  0.83453921  0.90119013     1.03100
Cr1519     Cr  0.38797752  0.83991446  0.84138707     1.93700
Cr1520     Cr  0.34068583  0.88606876  0.84100688     1.93200
Cr1521     Cr  0.34193112  0.84088181  0.88874663     1.39100
O1522       O  0.35678488  0.85534043  0.85679803    -1.22500
O1523       O  0.36540312  0.62068469  0.80504745    -0.84800
O1524       O  0.37378990  0.65373159  0.85314331    -0.81800
C1525       C  0.34994581  0.66509715  0.85927109     0.98700
O1526       O  0.32964379  0.65010573  0.86911685    -0.81900
O1527       O  0.29626950  0.60175345  0.87729964    -0.84500
C1528       C  0.28512859  0.59572437  0.85311626     1.03200
O1529       O  0.30062961  0.58576457  0.83322971    -0.77300
O1530       O  0.34937412  0.57652471  0.80110947    -0.77500
C1531       C  0.35564706  0.60049723  0.78982094     1.03200
O1532       O  0.40208739  0.57665164  0.82869536    -0.84800
O1533       O  0.40553646  0.60771208  0.87867353    -0.81800
C1534       C  0.39883391  0.61899955  0.90231076     0.98700
O1535       O  0.37327719  0.62727938  0.90655949    -0.81900
O1536       O  0.34257099  0.57667773  0.91030507    -0.84500
C1537       C  0.33207387  0.55268900  0.90328903     1.03200
O1538       O  0.32286171  0.54896354  0.87797548    -0.77300
O1539       O  0.37381128  0.54459423  0.84810455    -0.77400
C1540       C  0.39788270  0.55133105  0.83775517     1.03100
Cr1541     Cr  0.38411929  0.61349123  0.84255254     1.93700
Cr1542     Cr  0.33658738  0.61274854  0.88836663     1.93200
Cr1543     Cr  0.33785837  0.56646640  0.84130925     1.39100
O1544       O  0.35268498  0.59778711  0.85723315    -1.22500
O1545       O  0.14933371  0.60239755  0.87478470    -0.84800
O1546       O  0.11578709  0.65059969  0.86859692    -0.81800
C1547       C  0.09624803  0.66553607  0.85719625     0.98700
O1548       O  0.07284601  0.65409024  0.84950779    -0.81900
O1549       O  0.08139763  0.61878582  0.80308946    -0.84500
C1550       C  0.08978798  0.59758741  0.78848909     1.03200
O1551       O  0.09463797  0.57384446  0.80065953    -0.77300
O1552       O  0.14514323  0.58562265  0.83081980    -0.77500
C1553       C  0.16055400  0.59596939  0.85075802     1.03200
O1554       O  0.10413329  0.57599144  0.90793430    -0.84800
O1555       O  0.07290890  0.62614445  0.90563986    -0.81800
C1556       C  0.04722435  0.61879410  0.90087814     0.98700
O1557       O  0.04023325  0.60905717  0.87664674    -0.81900
O1558       O  0.04433699  0.57568456  0.82879331    -0.84500
C1559       C  0.04855107  0.55071667  0.83896234     1.03200
O1560       O  0.07274041  0.54407406  0.84938423    -0.77300
O1561       O  0.12576927  0.55000381  0.87600147    -0.77400
C1562       C  0.11790535  0.55359495  0.90154620     1.03100
Cr1563     Cr  0.10934320  0.61258826  0.88682379     1.93700
Cr1564     Cr  0.06222302  0.61327987  0.84063265     1.93200
Cr1565     Cr  0.10824654  0.56599204  0.84034763     1.39100
O1566       O  0.09343975  0.59770855  0.85576022    -1.22500
O1567       O  0.10269042  0.80249061  0.87689694    -0.84800
O1568       O  0.15047274  0.83623413  0.86749760    -0.81800
C1569       C  0.16535628  0.85639671  0.85703450     0.98700
O1570       O  0.15387520  0.88036108  0.85065323    -0.81900
O1571       O  0.12134227  0.87275349  0.80255094    -0.84500
C1572       C  0.10294873  0.86047002  0.78697798     1.03200
O1573       O  0.07933545  0.85223339  0.79754443    -0.77300
O1574       O  0.08972554  0.80469949  0.83183276    -0.77500
C1575       C  0.09808391  0.79009144  0.85315658     1.03200
O1576       O  0.07639754  0.84934220  0.90682076    -0.84800
O1577       O  0.12726708  0.87997654  0.90375759    -0.81800
C1578       C  0.11786604  0.90518056  0.90014152     0.98700
O1579       O  0.10646527  0.91197264  0.87656914    -0.81900
O1580       O  0.07572104  0.90759849  0.82717382    -0.84500
C1581       C  0.05025201  0.90159266  0.83447025     1.03200
O1582       O  0.04444962  0.87630335  0.84247706    -0.77300
O1583       O  0.05115094  0.82678913  0.87457219    -0.77400
C1584       C  0.05395273  0.83579383  0.90006144     1.03100
Cr1585     Cr  0.11301662  0.84321757  0.88618339     1.93700
Cr1586     Cr  0.11320047  0.89058120  0.84031403     1.93200
Cr1587     Cr  0.06859458  0.84148483  0.83779112     1.39100
O1588       O  0.09845216  0.85835621  0.85443454    -1.22500
O1589       O  0.15386528  0.83656185  0.58418295    -0.84800
O1590       O  0.10721255  0.80078987  0.57435533    -0.81800
C1591       C  0.10147532  0.78861930  0.59801084     0.98700
O1592       O  0.09273702  0.80343529  0.61899516    -0.81900
O1593       O  0.08207766  0.85105040  0.65278037    -0.84500
C1594       C  0.10565187  0.85923525  0.66354310     1.03200
O1595       O  0.12433466  0.87126759  0.64804755    -0.77300
O1596       O  0.15575146  0.88126462  0.59919975    -0.77500
C1597       C  0.16811053  0.85758436  0.59389862     1.03200
O1598       O  0.12903448  0.87932979  0.54719659    -0.84800
O1599       O  0.07956206  0.84663525  0.54350866    -0.81800
C1600       C  0.05671835  0.83379386  0.55047957     0.98700
O1601       O  0.05407723  0.82472476  0.57595861    -0.81900
O1602       O  0.04692791  0.87447920  0.60763778    -0.84500
C1603       C  0.05251552  0.89934735  0.61697223     1.03200
O1604       O  0.07776800  0.90489208  0.62502391    -0.77300
O1605       O  0.10675228  0.91034828  0.57447874    -0.77400
C1606       C  0.11846217  0.90410059  0.55089335     1.03100
Cr1607     Cr  0.11629292  0.84192577  0.56478824     1.93700
Cr1608     Cr  0.07133968  0.83984916  0.61267780     1.93200
Cr1609     Cr  0.11510011  0.88933887  0.61054601     1.39100
O1610       O  0.10109534  0.85686483  0.59627775    -1.22500
O1611       O  0.33513702  0.80298198  0.58247535    -0.84800
O1612       O  0.30356533  0.85188966  0.57306553    -0.81800
C1613       C  0.29173002  0.85745751  0.59689300     0.98700
O1614       O  0.30641317  0.86607490  0.61798673    -0.81900
O1615       O  0.35393605  0.87612089  0.65212754    -0.84500
C1616       C  0.36074335  0.85266827  0.66404373     1.03200
O1617       O  0.37061192  0.83220643  0.64920648    -0.77300
O1618       O  0.37814127  0.79821043  0.60122375    -0.77500
C1619       C  0.35425035  0.78746698  0.59377990     1.03200
O1620       O  0.38042522  0.82482789  0.54692699    -0.84800
O1621       O  0.35132363  0.87662244  0.54322660    -0.81800
C1622       C  0.33951414  0.90003624  0.55001498     0.98700
O1623       O  0.32940539  0.90333324  0.57496390    -0.81900
O1624       O  0.37892881  0.90781713  0.60612802    -0.84500
C1625       C  0.40293288  0.90103618  0.61640855     1.03200
O1626       O  0.40770539  0.87553590  0.62478489    -0.77300
O1627       O  0.41196631  0.84376403  0.57572616    -0.77400
C1628       C  0.40580359  0.83307039  0.55168779     1.03100
Cr1629     Cr  0.34380401  0.84024860  0.56397626     1.93700
Cr1630     Cr  0.34340392  0.88573680  0.61167932     1.93200
Cr1631     Cr  0.38962604  0.83854203  0.61149011     1.39100
O1632       O  0.35880412  0.85457097  0.59599811    -1.22500
O1633       O  0.11719458  0.64891154  0.58580482    -0.84800
O1634       O  0.15108912  0.60096994  0.57726259    -0.81800
C1635       C  0.16261008  0.59399760  0.60098142     0.98700
O1636       O  0.14728184  0.58451386  0.62129446    -0.81900
O1637       O  0.09783353  0.57392847  0.65266517    -0.84500
C1638       C  0.09160165  0.59758530  0.66450506     1.03200
O1639       O  0.08212214  0.61819566  0.64963511    -0.77300
O1640       O  0.07315113  0.65230537  0.60201634    -0.77500
C1641       C  0.09693898  0.66391168  0.59577706     1.03200
O1642       O  0.07412766  0.62556683  0.54791652    -0.84800
O1643       O  0.10509241  0.57548398  0.54480655    -0.81800
C1644       C  0.11850503  0.55282704  0.55104417     0.98700
O1645       O  0.12655592  0.54886886  0.57654609    -0.81900
O1646       O  0.07509596  0.54217221  0.60525494    -0.84500
C1647       C  0.05109943  0.54865340  0.61604698     1.03200
O1648       O  0.04665853  0.57385207  0.62537500    -0.77300
O1649       O  0.04212286  0.60546859  0.57562053    -0.77400
C1650       C  0.04878068  0.61671899  0.55190933     1.03100
Cr1651     Cr  0.11074167  0.61157441  0.56637089     1.93700
Cr1652     Cr  0.11036394  0.56488980  0.61283094     1.93200
Cr1653     Cr  0.06347602  0.61135784  0.61200179     1.39100
O1654       O  0.09506953  0.59624873  0.59732926    -1.22500
O1655       O  0.37514578  0.65216819  0.60230095    -0.84800
O1656       O  0.36709849  0.61900077  0.65063174    -0.81800
C1657       C  0.35666006  0.59915742  0.66591169     0.98700
O1658       O  0.35007291  0.57515084  0.65478006    -0.81900
O1659       O  0.30226064  0.58285432  0.62085855    -0.84500
C1660       C  0.28718447  0.59212389  0.60033145     1.03200
O1661       O  0.29890360  0.59872242  0.57665412    -0.77300
O1662       O  0.33119545  0.64804555  0.58589568    -0.77500
C1663       C  0.35127198  0.66342690  0.59570103     1.03200
O1664       O  0.40772989  0.60585467  0.57702962    -0.84800
O1665       O  0.40434234  0.57518686  0.62755952    -0.81800
C1666       C  0.40027430  0.54962764  0.61907953     0.98700
O1667       O  0.37625429  0.54259185  0.60886967    -0.81900
O1668       O  0.32657334  0.54648928  0.57709651    -0.84500
C1669       C  0.33557037  0.55087666  0.55178037     1.03200
O1670       O  0.34613074  0.57488863  0.54517108    -0.77300
O1671       O  0.37556292  0.62580527  0.54937138    -0.77400
C1672       C  0.40092711  0.61703080  0.55330497     1.03100
Cr1673     Cr  0.38604035  0.61182959  0.61319358     1.93700
Cr1674     Cr  0.34003179  0.56433448  0.61422548     1.93200
Cr1675     Cr  0.33909771  0.61064497  0.56690615     1.39100
O1676       O  0.35483506  0.59580777  0.59838996    -1.22500
N1677       N  0.43270860  0.97556422  0.61946275    -0.36000
N1678       N  0.47762711  0.93033223  0.62111453    -0.56600
N1679       N  0.02079154  0.97433406  0.61813562    -0.36000
N1680       N  0.47589981  0.51933301  0.62165016    -0.56600
C1681       C  0.41761903  0.95174341  0.62637547     0.27600
C1682       C  0.41663665  0.49864395  0.62701973     0.27600
C1683       C  0.03626442  0.95104356  0.62653327     0.27500
C1684       C  0.03555847  0.49811066  0.62588847     0.27500
C1685       C  0.45413136  0.91609093  0.61174484     0.36200
C1686       C  0.00064959  0.91540723  0.61130312     0.36200
C1687       C  0.45257075  0.53567140  0.61538483     0.36200
C1688       C  0.99912072  0.53481200  0.61349789     0.36200
C1689       C  0.39176125  0.95970397  0.63883331    -0.21300
C1690       C  0.39114669  0.98933852  0.63922334    -0.21300
C1691       C  0.06081060  0.96048892  0.64073437    -0.21300
C1692       C  0.06046774  0.99012553  0.63998777    -0.21300
C1693       C  0.46217963  0.89256373  0.59554967    -0.22400
C1694       C  0.49148141  0.89214121  0.59501856    -0.22400
C1695       C  0.46109877  0.56142787  0.60327343    -0.22400
C1696       C  0.49036717  0.56082180  0.60195652    -0.22400
C1697       C  0.42559117  0.92339293  0.61878547    -0.17700
C1698       C  0.42379360  0.52762517  0.62101819    -0.17700
C1699       C  0.02800265  0.52658061  0.61836075    -0.17700
C1700       C  0.02942408  0.92218247  0.61865801    -0.17700
H1701       H  0.37488405  0.94568353  0.64651586     0.15200
H1702       H  0.37378878  0.50246116  0.64739684     0.15200
H1703       H  0.07737275  0.94791045  0.65099222     0.15200
H1704       H  0.07668441  0.50419234  0.64892369     0.15200
H1705       H  0.44848858  0.87791661  0.58418695     0.13500
H1706       H  0.00400089  0.87701496  0.58272744     0.13500
H1707       H  0.44790411  0.57882085  0.59573193     0.13500
H1708       H  0.00339772  0.57776532  0.59335582     0.13500
H1709       H  0.45122235  0.97586336  0.60694136     0.26700
H1710       H  0.00296919  0.97419965  0.60458635     0.26700
N1711       N  0.01821172  0.97642764  0.83642230    -0.36000
N1712       N  0.47331616  0.52126222  0.83493368    -0.56600
N1713       N  0.43011766  0.97721960  0.83522494    -0.36000
N1714       N  0.47495076  0.93233629  0.83194834    -0.56600
C1715       C  0.03262837  0.50048659  0.82880770     0.27600
C1716       C  0.03347801  0.95350009  0.82676300     0.27600
C1717       C  0.41397397  0.50055495  0.82876735     0.27500
C1718       C  0.41478355  0.95365883  0.82797621     0.27500
C1719       C  0.49656430  0.53658725  0.84329854     0.36200
C1720       C  0.44996652  0.53715847  0.84199975     0.36200
C1721       C  0.49818838  0.91718355  0.84100184     0.36200
C1722       C  0.45156954  0.91759633  0.84096169     0.36200
C1723       C  0.05699953  0.99302801  0.81356329    -0.21300
C1724       C  0.05745931  0.96342747  0.81202537    -0.21300
C1725       C  0.38822591  0.99169868  0.81671002    -0.21300
C1726       C  0.38872348  0.96206092  0.81623452    -0.21300
C1727       C  0.48788333  0.56205430  0.85596604    -0.22400
C1728       C  0.45852228  0.56247489  0.85504419    -0.22400
C1729       C  0.48928355  0.89326707  0.85645308    -0.22400
C1730       C  0.45998059  0.89351017  0.85613322    -0.22400
C1731       C  0.02531578  0.52870357  0.83735000    -0.17700
C1732       C  0.02693442  0.92437495  0.83369861    -0.17700
C1733       C  0.42279006  0.92511013  0.83474704    -0.17700
C1734       C  0.42121894  0.52926799  0.83586402    -0.17700
H1735       H  0.07278779  0.50742735  0.80437447     0.15200
H1736       H  0.07363501  0.95110232  0.80088580     0.15200
H1737       H  0.37069117  0.50507777  0.80938145     0.15200
H1738       H  0.37160407  0.94834267  0.80854713     0.15200
H1739       H  0.00108015  0.57864912  0.86499781     0.13500
H1740       H  0.44527414  0.57942274  0.86335820     0.13500
H1741       H  0.00197163  0.87775798  0.86812580     0.13500
H1742       H  0.44657409  0.87834212  0.86706168     0.13500
H1743       H  0.50080698  0.97574540  0.85050178     0.26700
H1744       H  0.44885496  0.97709125  0.84741130     0.26700
N1745       N  0.12166727  0.97920693  0.93184720    -0.36000
N1746       N  0.12306407  0.93437546  0.97573215    -0.56600
N1747       N  0.12143586  0.97863467  0.52007177    -0.36000
N1748       N  0.12492204  0.52289422  0.97612067    -0.56600
C1749       C  0.12785318  0.95554061  0.91604986     0.27600
C1750       C  0.12909224  0.50242810  0.91592313     0.27600
C1751       C  0.12725298  0.95480969  0.53580153     0.27500
C1752       C  0.12865193  0.50167414  0.53633731     0.27500
C1753       C  0.11565843  0.91867454  0.95234951     0.36200
C1754       C  0.11570797  0.91832713  0.49892452     0.36200
C1755       C  0.12569286  0.54051742  0.95297748     0.36200
C1756       C  0.12581520  0.54022796  0.49944693     0.36200
C1757       C  0.14000346  0.96369632  0.89015591    -0.21300
C1758       C  0.14079339  0.99321879  0.89001659    -0.21300
C1759       C  0.13875516  0.96268042  0.56206799    -0.21300
C1760       C  0.13967584  0.99213207  0.56246028    -0.21300
C1761       C  0.10369290  0.89280589  0.96081920    -0.22400
C1762       C  0.10379432  0.89258550  0.99018671    -0.22400
C1763       C  0.12943630  0.56879288  0.96169442    -0.22400
C1764       C  0.12958781  0.56861335  0.99094776    -0.22400
C1765       C  0.12065720  0.92698551  0.92353135    -0.17700
C1766       C  0.12440297  0.53150518  0.92398568    -0.17700
C1767       C  0.12450706  0.53088629  0.52839200    -0.17700
C1768       C  0.12061885  0.92627781  0.52782250    -0.17700
H1769       H  0.14765099  0.94983090  0.87310049     0.15200
H1770       H  0.14999941  0.50592485  0.87291132     0.15200
H1771       H  0.14610036  0.94869066  0.57916856     0.12800
H1772       H  0.14873375  0.50446209  0.57989466     0.15200
H1773       H  0.09541736  0.87587968  0.94745879     0.13500
H1774       H  0.09561414  0.87547787  0.50341488     0.13500
H1775       H  0.13318664  0.58766792  0.94861478     0.13500
H1776       H  0.13346061  0.58736543  0.50413269     0.13500
H1777       H  0.10961972  0.97953154  0.95068732     0.26700
H1778       H  0.10991812  0.97917964  0.50090799     0.26700
N1779       N  0.42950608  0.62432220  0.97753081    -0.36000
N1780       N  0.47456913  0.62079650  0.52103865    -0.56600
N1781       N  0.01835530  0.62377795  0.97662438    -0.36000
N1782       N  0.47324320  0.62282037  0.93295843    -0.56600
C1783       C  0.41484163  0.61533907  0.50105365     0.27600
C1784       C  0.41406359  0.61645220  0.95410413     0.27600
C1785       C  0.03354645  0.61471221  0.49983023     0.27500
C1786       C  0.03277187  0.61519077  0.95283211     0.27500
C1787       C  0.45153418  0.62656215  0.53775686     0.36200
C1788       C  0.99799479  0.62667703  0.53719927     0.36200
C1789       C  0.44980904  0.62888157  0.91684399     0.36200
C1790       C  0.99638686  0.62839599  0.91628139     0.36200
C1791       C  0.38998557  0.60155219  0.99233571    -0.21300
C1792       C  0.38951534  0.60220628  0.96288518    -0.21300
C1793       C  0.05761767  0.59996598  0.99064351    -0.21300
C1794       C  0.05709852  0.60019240  0.96110722    -0.21300
C1795       C  0.46036421  0.63669145  0.56435352    -0.22400
C1796       C  0.48977135  0.63683295  0.56397762    -0.22400
C1797       C  0.45812367  0.63894871  0.89004473    -0.22400
C1798       C  0.48757243  0.63865582  0.88968847    -0.22400
C1799       C  0.42288723  0.62021830  0.53006537    -0.17700
C1800       C  0.42126903  0.62241949  0.92511474    -0.17700
C1801       C  0.02502153  0.62151619  0.92398404    -0.17700
C1802       C  0.02642851  0.62009059  0.52897226    -0.17700
H1803       H  0.37401923  0.59148827  0.50557498     0.15200
H1804       H  0.37312170  0.59271155  0.94966111     0.15200
H1805       H  0.07354885  0.58951506  0.50377980     0.15200
H1806       H  0.07257505  0.58986193  0.94743291     0.15200
H1807       H  0.44708801  0.64317018  0.58229339     0.13500
H1808       H  0.00346954  0.64338256  0.58157934     0.13500
H1809       H  0.44447523  0.64550981  0.87239619     0.13500
H1810       H  0.00082341  0.64502675  0.87168057     0.13500
H1811       H  0.44775748  0.63742965  0.97756621     0.26700
H1812       H  0.00052414  0.63745383  0.97701622     0.26700
N1813       N  0.33528200  0.93213145  0.97645440    -0.36000
N1814       N  0.33042512  0.97637191  0.93243481    -0.56600
N1815       N  0.33303616  0.52021056  0.97714296    -0.36000
N1816       N  0.33305180  0.97565209  0.52118418    -0.56600
C1817       C  0.32812601  0.91624377  0.95319704     0.27600
C1818       C  0.32971493  0.91584276  0.49986475     0.27600
C1819       C  0.32495437  0.53602939  0.95404749     0.27500
C1820       C  0.32645768  0.53563056  0.50092697     0.27500
C1821       C  0.33711507  0.95322099  0.91597151     0.36200
C1822       C  0.33571862  0.50002840  0.91619394     0.36200
C1823       C  0.34062973  0.95235734  0.53697229     0.36200
C1824       C  0.33922909  0.49898467  0.53748328     0.36200
C1825       C  0.31740727  0.88980119  0.96196648    -0.21300
C1826       C  0.31847402  0.88952119  0.99145447    -0.21300
C1827       C  0.31265927  0.56158614  0.96331822    -0.21300
C1828       C  0.31364253  0.56136175  0.99289014    -0.21300
C1829       C  0.34660809  0.96227169  0.88930934    -0.22400
C1830       C  0.34566958  0.99167977  0.88942137    -0.22400
C1831       C  0.35149272  0.96101875  0.56324734    -0.22400
C1832       C  0.35061550  0.99035879  0.56357124    -0.22400
C1833       C  0.33354216  0.92409640  0.92439248    -0.17700
C1834       C  0.33662392  0.92342380  0.52839436    -0.17700
C1835       C  0.33353719  0.52782143  0.52952588    -0.17700
C1836       C  0.33053919  0.52886419  0.92495972    -0.17700
H1837       H  0.30984108  0.87235039  0.94854640     0.15200
H1838       H  0.31181780  0.87184001  0.50505486     0.15200
H1839       H  0.30397542  0.57873330  0.95018124     0.15200
H1840       H  0.30587372  0.57828743  0.50681682     0.15200
H1841       H  0.35344278  0.94935341  0.87140176     0.13500
H1842       H  0.35163028  0.50496577  0.87154030     0.13500
H1843       H  0.35944263  0.94790720  0.58050861     0.13500
H1844       H  0.35783049  0.50348146  0.58112384     0.13500
H1845       H  0.34680725  0.95131188  0.97622361     0.26700
H1846       H  0.34559779  0.50170570  0.97660791     0.26700
N1847       N  0.43581043  0.82811440  0.97612291    -0.36000
N1848       N  0.47915278  0.83026897  0.93105112    -0.56600
N1849       N  0.02368131  0.83175186  0.97558837    -0.36000
N1850       N  0.48064650  0.82932174  0.52070575    -0.56600
C1851       C  0.42011752  0.83637980  0.95288917     0.27600
C1852       C  0.42080032  0.83597505  0.49985759     0.27600
C1853       C  0.04017775  0.82849288  0.95168832     0.27500
C1854       C  0.04105036  0.82820576  0.49888977     0.27500
C1855       C  0.45553438  0.82560057  0.91476330     0.36200
C1856       C  0.00214526  0.82645962  0.91372278     0.36200
C1857       C  0.45722134  0.82473793  0.53733125     0.36200
C1858       C  0.00401118  0.82599168  0.53777891     0.36200
C1859       C  0.39534366  0.84989131  0.96205995    -0.21300
C1860       C  0.39578078  0.84961782  0.99143653    -0.21300
C1861       C  0.06797240  0.82191433  0.96003148    -0.21300
C1862       C  0.06852977  0.82174735  0.98942988    -0.21300
C1863       C  0.46349369  0.81761395  0.88727062    -0.22400
C1864       C  0.49277109  0.81844421  0.88643162    -0.22400
C1865       C  0.46571964  0.81721795  0.56482109    -0.22400
C1866       C  0.49502222  0.81842325  0.56530897    -0.22400
C1867       C  0.42708263  0.83133617  0.92363940    -0.17700
C1868       C  0.42848267  0.83034802  0.52889164    -0.17700
C1869       C  0.03307564  0.82944928  0.52855300    -0.17700
C1870       C  0.03121010  0.83031306  0.92236636    -0.17700
H1871       H  0.37873102  0.85949283  0.94915823     0.15200
H1872       H  0.37956148  0.85901539  0.50479229     0.15200
H1873       H  0.08598403  0.81635849  0.94647413     0.15200
H1874       H  0.08703788  0.81595304  0.50219268     0.15200
H1875       H  0.44980094  0.81172181  0.86943849     0.13500
H1876       H  0.00492119  0.81252515  0.86765194     0.13500
H1877       H  0.45238809  0.81152516  0.58297749     0.13500
H1878       H  0.00739968  0.81320995  0.58415201     0.13500
H1879       H  0.45428127  0.81549148  0.97583169     0.26700
H1880       H  0.00248363  0.83848414  0.97588867     0.26700
C1881       C  0.20972277  0.57844901  0.62349975     0.24200
C1882       C  0.19445782  0.59550017  0.60355628    -0.23900
C1883       C  0.21015745  0.61260402  0.58411255     0.19100
C1884       C  0.24007175  0.61204744  0.58385829     0.24100
C1885       C  0.25542041  0.59434455  0.60300228    -0.23900
C1886       C  0.23990391  0.57794366  0.62327785     0.19000
F1887       F  0.25380696  0.56045483  0.64208998    -0.13800
F1888       F  0.19554683  0.56120261  0.64231895    -0.16200
F1889       F  0.25401179  0.62897897  0.56458493    -0.16200
F1890       F  0.19657228  0.62988855  0.56489565    -0.13800
C1891       C  0.33159067  0.74085378  0.57806325     0.24200
C1892       C  0.34966696  0.75605555  0.59701621    -0.23900
C1893       C  0.36522437  0.74059144  0.61781527     0.19100
C1894       C  0.36459163  0.71053218  0.61819926     0.24100
C1895       C  0.34808587  0.69515394  0.59801352    -0.23900
C1896       C  0.33081455  0.71066520  0.57854768     0.19000
F1897       F  0.31467388  0.69668780  0.55865775    -0.13800
F1898       F  0.31601302  0.75505160  0.55785552    -0.16200
F1899       F  0.38065832  0.69644343  0.63808641    -0.16200
F1900       F  0.38147264  0.75458976  0.63762620    -0.13800
C1901       C  0.08449264  0.71127428  0.61907576     0.24200
C1902       C  0.10033746  0.69559393  0.59857917    -0.23900
C1903       C  0.11827248  0.71070764  0.57951198     0.19100
C1904       C  0.11965919  0.74080138  0.58024966     0.24100
C1905       C  0.10293786  0.75664235  0.59994751    -0.23900
C1906       C  0.08558506  0.74145447  0.61959445     0.19000
F1907       F  0.06842080  0.75579733  0.63832361    -0.13800
F1908       F  0.06770627  0.69741992  0.63852337    -0.16200
F1909       F  0.13696553  0.75442931  0.56111327    -0.16200
F1910       F  0.13344350  0.69644907  0.55906122    -0.13800
C1911       C  0.24538815  0.83431433  0.58345786     0.24200
C1912       C  0.26028362  0.85550741  0.59900422    -0.23900
C1913       C  0.24476609  0.87598900  0.61480414     0.19100
C1914       C  0.21477846  0.87603271  0.61406766     0.24100
C1915       C  0.19971335  0.85546769  0.59752311    -0.23900
C1916       C  0.21542993  0.83398999  0.58308988     0.19000
F1917       F  0.20193340  0.81313945  0.56776623    -0.13800
F1918       F  0.25989519  0.81395634  0.56836775    -0.16200
F1919       F  0.20058772  0.89641092  0.62941788    -0.16200
F1920       F  0.25863152  0.89689961  0.62977821    -0.13800
C1921       C  0.12696912  0.87571124  0.71052096     0.24200
C1922       C  0.11005309  0.85601936  0.69496502    -0.23900
C1923       C  0.09486382  0.83469908  0.71015278     0.19100
C1924       C  0.09353789  0.83536902  0.74016519     0.24100
C1925       C  0.10822210  0.85679679  0.75570781    -0.23900
C1926       C  0.12646690  0.87573563  0.74066443     0.19000
F1927       F  0.14249378  0.89549179  0.75496950    -0.13800
F1928       F  0.14244471  0.89623199  0.69668296    -0.16200
F1929       F  0.07746305  0.81527463  0.75396847    -0.16200
F1930       F  0.08064574  0.81355079  0.69587171    -0.13800
C1931       C  0.10606894  0.57701712  0.74167374     0.24200
C1932       C  0.09271438  0.59952214  0.75690494    -0.23900
C1933       C  0.08120562  0.62289363  0.74146473     0.19100
C1934       C  0.08197875  0.62314534  0.71137786     0.24100
C1935       C  0.09394256  0.59981140  0.69618394    -0.23900
C1936       C  0.10670631  0.57718312  0.71180608     0.19000
F1937       F  0.11944018  0.55462566  0.69829075    -0.13800
F1938       F  0.11815062  0.55429115  0.75553672    -0.16200
F1939       F  0.07009018  0.64577641  0.69726273    -0.16200
F1940       F  0.06807840  0.64496618  0.75534621    -0.13800
C1941       C  0.11436691  0.71299960  0.87517203     0.24200
C1942       C  0.09990770  0.69709074  0.85397661    -0.23900
C1943       C  0.08704551  0.71187884  0.83089180     0.19100
C1944       C  0.08748723  0.74206524  0.82971226     0.24100
C1945       C  0.10077946  0.75813090  0.85172053    -0.23900
C1946       C  0.11469873  0.74308272  0.87416184     0.19000
F1947       F  0.12781000  0.75743673  0.89595126    -0.13800
F1948       F  0.12668347  0.69954909  0.89798372    -0.16200
F1949       F  0.07350447  0.75544517  0.80786024    -0.16200
F1950       F  0.07357994  0.69705937  0.80964418    -0.13800
C1951       C  0.33304540  0.58704825  0.71285742     0.24200
C1952       C  0.35353866  0.60309899  0.69744438    -0.23900
C1953       C  0.37226330  0.62131593  0.71277109     0.19100
C1954       C  0.37193797  0.62175136  0.74290109     0.24100
C1955       C  0.35302801  0.60383374  0.75826208    -0.23900
C1956       C  0.33292149  0.58726420  0.74292289     0.19000
F1957       F  0.31324188  0.57099495  0.75706831    -0.13800
F1958       F  0.31313856  0.57098155  0.69882448    -0.16200
F1959       F  0.39130863  0.63842380  0.75698117    -0.16200
F1960       F  0.39201274  0.63754418  0.69872462    -0.13800
C1961       C  0.23747549  0.61486590  0.86939031     0.24200
C1962       C  0.25342716  0.59897418  0.84920236    -0.23900
C1963       C  0.23841634  0.58510754  0.82669447     0.19100
C1964       C  0.20817020  0.58494573  0.82614419     0.24100
C1965       C  0.19233595  0.59917142  0.84775509    -0.23900
C1966       C  0.20756785  0.61506373  0.86861714     0.19000
F1967       F  0.19354110  0.63050747  0.88903509    -0.13800
F1968       F  0.25076194  0.63013522  0.89042583    -0.16200
F1969       F  0.19455136  0.56980764  0.80522454    -0.16200
F1970       F  0.25286892  0.57077079  0.80578975    -0.13800
C1971       C  0.37528543  0.83142481  0.74176772     0.24200
C1972       C  0.35771037  0.85095248  0.75685684    -0.23900
C1973       C  0.33987060  0.86961334  0.74101099     0.19100
C1974       C  0.33998670  0.86915058  0.71096985     0.24100
C1975       C  0.35828363  0.85035444  0.69583469    -0.23900
C1976       C  0.37563656  0.83119800  0.71159786     0.19000
F1977       F  0.39410437  0.81324610  0.69790952    -0.13800
F1978       F  0.39334928  0.81356383  0.75612465    -0.16200
F1979       F  0.32223465  0.88743253  0.69670494    -0.16200
F1980       F  0.32239842  0.88869543  0.75453014    -0.13800
C1981       C  0.24191894  0.86796974  0.83167755     0.24200
C1982       C  0.25765590  0.85273824  0.85262361    -0.23900
C1983       C  0.24249547  0.83601295  0.87289643     0.19100
C1984       C  0.21247534  0.83579434  0.87321402     0.24100
C1985       C  0.19683934  0.85288518  0.85376907    -0.23900
C1986       C  0.21185512  0.86826781  0.83245445     0.19000
F1987       F  0.19739798  0.88398900  0.81253964    -0.13800
F1988       F  0.25551668  0.88382841  0.81129167    -0.16200
F1989       F  0.19880762  0.82011170  0.89370305    -0.16200
F1990       F  0.25669809  0.82038173  0.89306417    -0.13800
C1991       C  0.33155047  0.71238406  0.87694946     0.24200
C1992       C  0.34708034  0.69654281  0.85647917    -0.23900
C1993       C  0.36249166  0.71125737  0.83500253     0.19100
C1994       C  0.36394153  0.74127219  0.83516950     0.24100
C1995       C  0.34959507  0.75707472  0.85657121    -0.23900
C1996       C  0.33255698  0.74241275  0.87680641     0.19000
F1997       F  0.31828127  0.75703670  0.89764125    -0.13800
F1998       F  0.31702432  0.69886295  0.89834641    -0.16200
F1999       F  0.37952327  0.75482864  0.81452390    -0.16200
F2000       F  0.37650859  0.69651155  0.81405791    -0.13800
O2001       O  0.87754352  0.29938065  0.35156258    -0.84800
O2002       O  0.86914475  0.33311033  0.30374904    -0.81800
C2003       C  0.85930846  0.35341658  0.28870930     0.98700
O2004       O  0.85189867  0.37675320  0.30052813    -0.81900
O2005       O  0.80408127  0.36518880  0.33417206    -0.84500
C2006       C  0.78933853  0.35606153  0.35506505     1.03200
O2007       O  0.80126883  0.35137803  0.37911020    -0.77300
O2008       O  0.83442949  0.30362147  0.37022940    -0.77500
C2009       C  0.85385554  0.28839788  0.35914130     1.03200
O2010       O  0.91016077  0.34540104  0.37717531    -0.84800
O2011       O  0.90514293  0.37729382  0.32809207    -0.81800
C2012       C  0.90008754  0.40261875  0.33678079     0.98700
O2013       O  0.87586912  0.40898218  0.34699403    -0.81900
O2014       O  0.82590115  0.40339878  0.37777009    -0.84500
C2015       C  0.83633258  0.40058612  0.40270285     1.03200
O2016       O  0.84862048  0.37741515  0.40954549    -0.77300
O2017       O  0.87877964  0.32637522  0.40613195    -0.77400
C2018       C  0.90413685  0.33456538  0.40119357     1.03100
Cr2019     Cr  0.88797510  0.33991525  0.34138484     1.93700
Cr2020     Cr  0.84067727  0.38606079  0.34099087     1.93200
Cr2021     Cr  0.84192552  0.34088861  0.38874545     1.39100
O2022       O  0.85678138  0.35534077  0.35679512    -1.22500
O2023       O  0.86542794  0.12070724  0.30504440    -0.84800
O2024       O  0.87381995  0.15373746  0.35315058    -0.81800
C2025       C  0.84997670  0.16510523  0.35927321     0.98700
O2026       O  0.82966573  0.15011732  0.36910385    -0.81900
O2027       O  0.79626640  0.10177989  0.37725628    -0.84500
C2028       C  0.78513262  0.09575444  0.35306702     1.03200
O2029       O  0.80064179  0.08579596  0.33318576    -0.77300
O2030       O  0.84940536  0.07654624  0.30109453    -0.77500
C2031       C  0.85567316  0.10052321  0.28981236     1.03200
O2032       O  0.90209224  0.07665541  0.32869183    -0.84800
O2033       O  0.90554402  0.10770909  0.37867854    -0.81800
C2034       C  0.89883789  0.11899171  0.40231769     0.98700
O2035       O  0.87327860  0.12726828  0.40656475    -0.81900
O2036       O  0.84255103  0.07668493  0.41028569    -0.84500
C2037       C  0.83204642  0.05270249  0.40326264     1.03200
O2038       O  0.82283854  0.04898728  0.37794546    -0.77300
O2039       O  0.87380732  0.04460568  0.34810270    -0.77400
C2040       C  0.89788103  0.05133648  0.33775379     1.03100
Cr2041     Cr  0.88413592  0.11349866  0.34255234     1.93700
Cr2042     Cr  0.83658717  0.11275819  0.38835006     1.93200
Cr2043     Cr  0.83786306  0.06648683  0.34128696     1.39100
O2044       O  0.85269278  0.09780000  0.35722105    -1.22500
O2045       O  0.64934040  0.10239864  0.37475779    -0.84800
O2046       O  0.61579200  0.15060227  0.36860491    -0.81800
C2047       C  0.59624806  0.16553854  0.35721425     0.98700
O2048       O  0.57284563  0.15409347  0.34952514    -0.81900
O2049       O  0.58137226  0.11879429  0.30309411    -0.84500
C2050       C  0.58975046  0.09759370  0.28848965     1.03200
O2051       O  0.59460533  0.07385044  0.30065901    -0.77300
O2052       O  0.64513058  0.08562637  0.33079311    -0.77500
C2053       C  0.66055042  0.09597781  0.35072234     1.03200
O2054       O  0.60413635  0.07599241  0.40792385    -0.84800
O2055       O  0.57292088  0.12614478  0.40565019    -0.81800
C2056       C  0.54723249  0.11880242  0.40089310     0.98700
O2057       O  0.54023438  0.10906452  0.37666456    -0.81900
O2058       O  0.54432282  0.07569219  0.32881143    -0.84500
C2059       C  0.54854022  0.05072473  0.33898098     1.03200
O2060       O  0.57273154  0.04408473  0.34939988    -0.77300
O2061       O  0.62577534  0.05000790  0.37599166    -0.77400
C2062       C  0.61790797  0.05359695  0.40153649     1.03100
Cr2063     Cr  0.60935071  0.11258886  0.38682024     1.93700
Cr2064     Cr  0.56221398  0.11328720  0.34064562     1.93200
Cr2065     Cr  0.60823562  0.06599767  0.34034237     1.39100
O2066       O  0.59343680  0.09771538  0.35575983    -1.22500
O2067       O  0.60268728  0.30249299  0.37689945    -0.84800
O2068       O  0.65046377  0.33624192  0.36748869    -0.81800
C2069       C  0.66534529  0.35640986  0.35703257     0.98700
O2070       O  0.65385874  0.38037509  0.35066463    -0.81900
O2071       O  0.62133308  0.37274121  0.30255764    -0.84500
C2072       C  0.60293348  0.36046779  0.28698363     1.03200
O2073       O  0.57931991  0.35223112  0.29755050    -0.77300
O2074       O  0.58970091  0.30469109  0.33184033    -0.77500
C2075       C  0.59806793  0.29008874  0.35316533     1.03200
O2076       O  0.57638919  0.34932828  0.40682691    -0.84800
O2077       O  0.62724674  0.37998248  0.40375002    -0.81800
C2078       C  0.61782414  0.40517882  0.40013723     0.98700
O2079       O  0.60642218  0.41196607  0.37656401    -0.81900
O2080       O  0.57570429  0.40758522  0.32715068    -0.84500
C2081       C  0.55023809  0.40158932  0.33446193     1.03200
O2082       O  0.54443863  0.37630505  0.34248641    -0.77300
O2083       O  0.55113495  0.32678604  0.37457592    -0.77400
C2084       C  0.55394156  0.33578406  0.40006627     1.03100
Cr2085     Cr  0.61300750  0.34321729  0.38618233     1.93700
Cr2086     Cr  0.61318031  0.39057686  0.34031273     1.93200
Cr2087     Cr  0.56857707  0.34148136  0.33779639     1.39100
O2088       O  0.59843657  0.35835104  0.35443540    -1.22500
O2089       O  0.65385945  0.33657136  0.08417319    -0.84800
O2090       O  0.60720745  0.30080261  0.07433768    -0.81800
C2091       C  0.60146820  0.28862791  0.09798981     0.98700
O2092       O  0.59273837  0.30344271  0.11897959    -0.81900
O2093       O  0.58206292  0.35105743  0.15277282    -0.84500
C2094       C  0.60562766  0.35925705  0.16354331     1.03200
O2095       O  0.62431378  0.37128899  0.14805179    -0.77300
O2096       O  0.65575009  0.38126781  0.09921239    -0.77500
C2097       C  0.66810543  0.35758820  0.09389972     1.03200
O2098       O  0.62903898  0.37933778  0.04718814    -0.84800
O2099       O  0.57955952  0.34665141  0.04349890    -0.81800
C2100       C  0.55671962  0.33380253  0.05046876     0.98700
O2101       O  0.55408104  0.32473224  0.07594712    -0.81900
O2102       O  0.54691943  0.37448646  0.10763324    -0.84500
C2103       C  0.55250671  0.39935803  0.11696059     1.03200
O2104       O  0.57776141  0.40491005  0.12499968    -0.77300
O2105       O  0.60677504  0.41036844  0.07447207    -0.77400
C2106       C  0.61848612  0.40411545  0.05088889     1.03100
Cr2107     Cr  0.61628971  0.34193900  0.06477871     1.93700
Cr2108     Cr  0.57133675  0.33985761  0.11266765     1.93200
Cr2109     Cr  0.61509750  0.38935254  0.11054169     1.39100
O2110       O  0.60109206  0.35687844  0.09626969    -1.22500
O2111       O  0.83512524  0.30299022  0.08248094    -0.84800
O2112       O  0.80355670  0.35189266  0.07307261    -0.81800
C2113       C  0.79172101  0.35744837  0.09690297     0.98700
O2114       O  0.80640333  0.36606260  0.11799844    -0.81900
O2115       O  0.85392014  0.37610747  0.15214375    -0.84500
C2116       C  0.86072259  0.35264920  0.16405212     1.03200
O2117       O  0.87059379  0.33219267  0.14920968    -0.77300
O2118       O  0.87813358  0.29821548  0.10121850    -0.77500
C2119       C  0.85424018  0.28747432  0.09377942     1.03200
O2120       O  0.88042095  0.32483182  0.04693938    -0.84800
O2121       O  0.85132549  0.37662863  0.04324594    -0.81800
C2122       C  0.83950637  0.40003712  0.05003476     0.98700
O2123       O  0.82939099  0.40332780  0.07498179    -0.81900
O2124       O  0.87891594  0.40781991  0.10615205    -0.84500
C2125       C  0.90291824  0.40103956  0.11643945     1.03200
O2126       O  0.90768881  0.37553685  0.12481180    -0.77300
O2127       O  0.91195912  0.34377509  0.07573633    -0.77400
C2128       C  0.90579901  0.33307697  0.05169853     1.03100
Cr2129     Cr  0.84379772  0.34025387  0.06398602     1.93700
Cr2130     Cr  0.84339077  0.38573221  0.11169655     1.93200
Cr2131     Cr  0.88961549  0.33854302  0.11149978     1.39100
O2132       O  0.85879444  0.35457198  0.09601027    -1.22500
O2133       O  0.61716750  0.14891394  0.08578988    -0.84800
O2134       O  0.65107656  0.10097279  0.07727745    -0.81800
C2135       C  0.66259469  0.09399299  0.10099591     0.98700
O2136       O  0.64726381  0.08450614  0.12130563    -0.81900
O2137       O  0.59780448  0.07393797  0.15266619    -0.84500
C2138       C  0.59157212  0.09759794  0.16450063     1.03200
O2139       O  0.58209878  0.11820745  0.14962391    -0.77300
O2140       O  0.57311909  0.15230192  0.10198569    -0.77500
C2141       C  0.59690373  0.16391373  0.09574640     1.03200
O2142       O  0.57411611  0.12554281  0.04789995    -0.84800
O2143       O  0.60510336  0.07547011  0.04480807    -0.81800
C2144       C  0.61852203  0.05281816  0.05105180     0.98700
O2145       O  0.62654794  0.04885372  0.07656094    -0.81900
O2146       O  0.57507532  0.04217396  0.10525405    -0.84500
C2147       C  0.55108177  0.04865637  0.11605142     1.03200
O2148       O  0.54664441  0.07385535  0.12537835    -0.77300
O2149       O  0.54210981  0.10544895  0.07560674    -0.77400
C2150       C  0.54876829  0.11669661  0.05189441     1.03100
Cr2151     Cr  0.61073130  0.11156665  0.06636734     1.93700
Cr2152     Cr  0.61034422  0.06488739  0.11283628     1.93200
Cr2153     Cr  0.56345675  0.11135573  0.11198894     1.39100
O2154       O  0.59505451  0.09624520  0.09732519    -1.22500
O2155       O  0.87514033  0.15217865  0.10227505    -0.84800
O2156       O  0.86708627  0.11902816  0.15061847    -0.81800
C2157       C  0.85665688  0.09918527  0.16590564     0.98700
O2158       O  0.85007596  0.07517345  0.15478119    -0.81900
O2159       O  0.80225405  0.08288159  0.12087605    -0.84500
C2160       C  0.78717249  0.09214341  0.10034977     1.03200
O2161       O  0.79888676  0.09873536  0.07666656    -0.77300
O2162       O  0.83118451  0.14805961  0.08588340    -0.77500
C2163       C  0.85126655  0.16343954  0.09567895     1.03200
O2164       O  0.90771577  0.10585489  0.07701715    -0.84800
O2165       O  0.90431933  0.07519896  0.12756400    -0.81800
C2166       C  0.90025315  0.04963817  0.11908620     0.98700
O2167       O  0.87623729  0.04260496  0.10886428    -0.81900
O2168       O  0.82654065  0.04651313  0.07710773    -0.84500
C2169       C  0.83554302  0.05088810  0.05179169     1.03200
O2170       O  0.84611493  0.07489332  0.04517707    -0.77300
O2171       O  0.87554923  0.12580953  0.04936020    -0.77400
C2172       C  0.90091374  0.11703241  0.05329214     1.03100
Cr2173     Cr  0.88602864  0.11184303  0.11318274     1.93700
Cr2174     Cr  0.84001866  0.06435455  0.11423072     1.93200
Cr2175     Cr  0.83908207  0.11065475  0.06690288     1.39100
O2176       O  0.85482126  0.09582332  0.09838703    -1.22500
N2177       N  0.93269404  0.47557224  0.11949751    -0.36000
N2178       N  0.97762113  0.43034882  0.12112850    -0.56600
N2179       N  0.52077276  0.47434407  0.11814883    -0.36000
N2180       N  0.97588186  0.01934629  0.12167890    -0.56600
C2181       C  0.91760249  0.45175078  0.12640628     0.27600
C2182       C  0.91661161  0.99865194  0.12703576     0.27600
C2183       C  0.53625627  0.45105363  0.12652740     0.27500
C2184       C  0.53554293  0.99811583  0.12589877     0.27500
C2185       C  0.95412101  0.41609589  0.11178299     0.36200
C2186       C  0.50063419  0.41541130  0.11131687     0.36200
C2187       C  0.95255125  0.03568704  0.11542335     0.36200
C2188       C  0.49910334  0.03482000  0.11351821     0.36200
C2189       C  0.89173684  0.45971296  0.13884720    -0.21300
C2190       C  0.89111923  0.48934781  0.13922920    -0.21300
C2191       C  0.56081528  0.46050041  0.14070636    -0.21300
C2192       C  0.56046755  0.49013590  0.13996690    -0.21300
C2193       C  0.96216561  0.39256288  0.09559543    -0.22400
C2194       C  0.99146596  0.39214925  0.09504049    -0.22400
C2195       C  0.96107819  0.06145440  0.10333363    -0.22400
C2196       C  0.99034522  0.06085329  0.10201825    -0.22400
C2197       C  0.92557865  0.42339797  0.11882402    -0.17700
C2198       C  0.92377169  0.02763459  0.12103902    -0.17700
C2199       C  0.52798511  0.02658570  0.11837429    -0.17700
C2200       C  0.52941263  0.42219154  0.11865529    -0.17700
H2201       H  0.87485539  0.44569353  0.14652220     0.15200
H2202       H  0.87374958  0.00246926  0.14738298     0.15200
H2203       H  0.57739017  0.44792562  0.15094732     0.15200
H2204       H  0.57669013  0.00419588  0.14889703     0.15200
H2205       H  0.94847261  0.37790599  0.08424958     0.13500
H2206       H  0.50397846  0.37700739  0.08275618     0.13500
H2207       H  0.94788433  0.07885286  0.09580286     0.13500
H2208       H  0.50338225  0.07777645  0.09338165     0.13500
H2209       H  0.95121337  0.47587066  0.10698561     0.26700
H2210       H  0.50293966  0.47421002  0.10461427     0.26700
N2211       N  0.51820092  0.47643158  0.33641956    -0.36000
N2212       N  0.97330938  0.02126352  0.33492496    -0.56600
N2213       N  0.93010156  0.47722516  0.33520863    -0.36000
N2214       N  0.97493667  0.43234250  0.33192062    -0.56600
C2215       C  0.53262438  0.00049118  0.32882461     0.27600
C2216       C  0.53347277  0.45350441  0.32676620     0.27600
C2217       C  0.91396279  0.00055846  0.32876168     0.27500
C2218       C  0.91476495  0.45366660  0.32795742     0.27500
C2219       C  0.99655841  0.03658809  0.34328817     0.36200
C2220       C  0.94996057  0.03715694  0.34199928     0.36200
C2221       C  0.99817168  0.41718357  0.34097231     0.36200
C2222       C  0.95155342  0.41759729  0.34092134     0.36200
C2223       C  0.55700210  0.49303510  0.31358608    -0.21300
C2224       C  0.55746418  0.46343489  0.31204659    -0.21300
C2225       C  0.88820349  0.49171008  0.31671318    -0.21300
C2226       C  0.88870087  0.46207239  0.31622788    -0.21300
C2227       C  0.98787906  0.06205148  0.35596431    -0.22400
C2228       C  0.95851794  0.06247018  0.35504908    -0.22400
C2229       C  0.98926208  0.39325843  0.35640734    -0.22400
C2230       C  0.95996168  0.39350230  0.35607878    -0.22400
C2231       C  0.52530801  0.02870800  0.33736921    -0.17700
C2232       C  0.52692214  0.42437582  0.33368733    -0.17700
C2233       C  0.92277277  0.42511551  0.33471683    -0.17700
C2234       C  0.92121227  0.02926937  0.33586302    -0.17700
H2235       H  0.57279955  0.00743641  0.30441830     0.15200
H2236       H  0.57364781  0.45111338  0.30091507     0.15200
H2237       H  0.87067159  0.00508717  0.30939474     0.15200
H2238       H  0.87157891  0.44835630  0.30854231     0.15200
H2239       H  0.50107532  0.07863865  0.36504652     0.13500
H2240       H  0.94527101  0.07941506  0.36337008     0.13500
H2241       H  0.50193612  0.37772553  0.36805843     0.13500
H2242       H  0.94655557  0.37832806  0.36699593     0.13500
H2243       H  0.00078886  0.47574894  0.35047257     0.26700
H2244       H  0.94884323  0.47709298  0.34738807     0.26700
N2245       N  0.62161080  0.47920605  0.43183715    -0.36000
N2246       N  0.62299087  0.43438193  0.47572648    -0.56600
N2247       N  0.62149982  0.47864222  0.02007461    -0.36000
N2248       N  0.62490785  0.02289313  0.47611176    -0.56600
C2249       C  0.62779853  0.45553717  0.41604507     0.27600
C2250       C  0.62906712  0.00242847  0.41592013     0.27600
C2251       C  0.62732512  0.45481622  0.03579768     0.27500
C2252       C  0.62872232  0.00167866  0.03633434     0.27500
C2253       C  0.61560428  0.41867028  0.45234541     0.36200
C2254       C  0.61574363  0.41834752  0.99892372     0.36200
C2255       C  0.62567756  0.04051885  0.45297053     0.36200
C2256       C  0.62586191  0.04023524  0.99945436     0.36200
C2257       C  0.63997077  0.46368677  0.39015913    -0.21300
C2258       C  0.64077421  0.49320872  0.39001942    -0.21300
C2259       C  0.63884311  0.46268292  0.06205889    -0.21300
C2260       C  0.63976144  0.49213665  0.06245485    -0.21300
C2261       C  0.60368336  0.39278184  0.46081842    -0.22400
C2262       C  0.60379497  0.39256077  0.49018574    -0.22400
C2263       C  0.62941858  0.06879402  0.46169015    -0.22400
C2264       C  0.62956971  0.06861165  0.49094311    -0.22400
C2265       C  0.62059941  0.42698358  0.42352715    -0.17700
C2266       C  0.62439398  0.03150735  0.42397850    -0.17700
C2267       C  0.62455564  0.03088856  0.02839739    -0.17700
C2268       C  0.62066496  0.42629103  0.02782110    -0.17700
H2269       H  0.64762776  0.44981713  0.37311139     0.15200
H2270       H  0.65001670  0.00591710  0.37293079     0.15200
H2271       H  0.64619028  0.44868886  0.07915526     0.12800
H2272       H  0.64881658  0.00446951  0.07988342     0.15200
H2273       H  0.59544317  0.37583576  0.44746166     0.13500
H2274       H  0.59554763  0.37554761  0.00341577     0.13500
H2275       H  0.63316896  0.08767088  0.44861323     0.13500
H2276       H  0.63348386  0.08737521  0.00414739     0.13500
H2277       H  0.60955276  0.47953733  0.45067095     0.26700
H2278       H  0.60996582  0.47918768  0.00092016     0.26700
N2279       N  0.92951707  0.12431206  0.47754019    -0.36000
N2280       N  0.97455900  0.12077694  0.02102078    -0.56600
N2281       N  0.51836898  0.12379649  0.47664034    -0.36000
N2282       N  0.97324980  0.12283063  0.43297096    -0.56600
C2283       C  0.91482705  0.11534506  0.00103791     0.27600
C2284       C  0.91407285  0.11644153  0.45411353     0.27600
C2285       C  0.53353285  0.11468695  0.99981750     0.27500
C2286       C  0.53278407  0.11520728  0.45284772     0.27500
C2287       C  0.95152554  0.12654888  0.03774025     0.36200
C2288       C  0.49798340  0.12666582  0.03718726     0.36200
C2289       C  0.94981428  0.12888348  0.41685426     0.36200
C2290       C  0.49639770  0.12841625  0.41630098     0.36200
C2291       C  0.89000445  0.10153018  0.49234616    -0.21300
C2292       C  0.88952943  0.10218785  0.46289495    -0.21300
C2293       C  0.55762958  0.09997985  0.49065688    -0.21300
C2294       C  0.55710948  0.10020652  0.46112090    -0.21300
C2295       C  0.96035949  0.13667643  0.06433585    -0.22400
C2296       C  0.98976669  0.13681068  0.06395844    -0.22400
C2297       C  0.95812872  0.13894719  0.39005363    -0.22400
C2298       C  0.98757775  0.13865756  0.38969787    -0.22400
C2299       C  0.92287483  0.12021641  0.03005033    -0.17700
C2300       C  0.92127448  0.12241371  0.42512369    -0.17700
C2301       C  0.52503251  0.12153273  0.42400087    -0.17700
C2302       C  0.52641521  0.12006866  0.02895872    -0.17700
H2303       H  0.87398017  0.09153314  0.00555731     0.15200
H2304       H  0.87313661  0.09269020  0.44966968     0.15200
H2305       H  0.57354457  0.08950190  0.00376824     0.15200
H2306       H  0.57258393  0.08987381  0.44744509     0.15200
H2307       H  0.94708567  0.14316014  0.08227566     0.13500
H2308       H  0.50346684  0.14336534  0.08156863     0.13500
H2309       H  0.94448025  0.14550149  0.37240267     0.13500
H2310       H  0.50083521  0.14506784  0.37170889     0.13500
H2311       H  0.94776388  0.13742278  0.47757619     0.26700
H2312       H  0.50053896  0.13747136  0.47703257     0.26700
N2313       N  0.83525909  0.43213753  0.47642379    -0.36000
N2314       N  0.83037216  0.47638138  0.43239789    -0.56600
N2315       N  0.83303294  0.02021483  0.47711559    -0.36000
N2316       N  0.83302097  0.47565219  0.02120290    -0.56600
C2317       C  0.82807442  0.41625761  0.45317001     0.27600
C2318       C  0.82973740  0.41583556  0.99988056     0.27600
C2319       C  0.82494250  0.03603704  0.45402379     0.27500
C2320       C  0.82644667  0.03563761  0.00093953     0.27500
C2321       C  0.83704918  0.45322892  0.41593266     0.36200
C2322       C  0.83566541  0.00003760  0.41615388     0.36200
C2323       C  0.84058729  0.45235958  0.03700053     0.36200
C2324       C  0.83917083  0.99898838  0.03751427     0.36200
C2325       C  0.81735149  0.38981868  0.46194528    -0.21300
C2326       C  0.81844803  0.38953140  0.49143285    -0.21300
C2327       C  0.81265933  0.06159597  0.46330368    -0.21300
C2328       C  0.81365788  0.06136960  0.49287531    -0.21300
C2329       C  0.84652749  0.46227652  0.38926307    -0.22400
C2330       C  0.84559430  0.49168519  0.38937384    -0.22400
C2331       C  0.85141316  0.46102361  0.06329021    -0.22400
C2332       C  0.85052684  0.49036232  0.06361330    -0.22400
C2333       C  0.83348202  0.42410628  0.42436193    -0.17700
C2334       C  0.83661238  0.42342388  0.02841572    -0.17700
C2335       C  0.83350292  0.02782739  0.02954414    -0.17700
C2336       C  0.83050549  0.02887353  0.42492910    -0.17700
H2337       H  0.80976760  0.37237354  0.44852776     0.15200
H2338       H  0.81186305  0.37182112  0.00505859     0.15200
H2339       H  0.80397098  0.07874539  0.45017263     0.15200
H2340       H  0.80588089  0.07830594  0.00681376     0.15200
H2341       H  0.85335023  0.44935639  0.37135146     0.13500
H2342       H  0.85152073  0.00496919  0.37147572     0.13500
H2343       H  0.85934786  0.44791512  0.08056206     0.13500
H2344       H  0.85770026  0.00348294  0.08118860     0.13500
H2345       H  0.84679305  0.45131264  0.47618320     0.26700
H2346       H  0.84558686  0.00170523  0.47657238     0.26700
N2347       N  0.93581682  0.32813997  0.47612204    -0.36000
N2348       N  0.97915065  0.33026454  0.43105918    -0.56600
N2349       N  0.52367429  0.33177519  0.47558990    -0.36000
N2350       N  0.98064189  0.32930783  0.02070876    -0.56600
C2351       C  0.92013289  0.33642789  0.45289007     0.27600
C2352       C  0.92079666  0.33596557  0.99986427     0.27600
C2353       C  0.54016587  0.32849034  0.45169091     0.27500
C2354       C  0.54105425  0.32820939  0.99887948     0.27500
C2355       C  0.95553190  0.32559211  0.41477364     0.36200
C2356       C  0.50213256  0.32644671  0.41372452     0.36200
C2357       C  0.95721767  0.32473886  0.03734016     0.36200
C2358       C  0.50401477  0.32598291  0.03777268     0.36200
C2359       C  0.89537817  0.34997342  0.46206197    -0.21300
C2360       C  0.89581573  0.34969089  0.49143999    -0.21300
C2361       C  0.56795669  0.32189544  0.46003440    -0.21300
C2362       C  0.56851748  0.32174384  0.48943288    -0.21300
C2363       C  0.96348755  0.31756556  0.38729201    -0.22400
C2364       C  0.99276689  0.31837330  0.38645723    -0.22400
C2365       C  0.96571687  0.31722401  0.06483071    -0.22400
C2366       C  0.99502000  0.31841370  0.06531178    -0.22400
C2367       C  0.92708675  0.33136293  0.42364233    -0.17700
C2368       C  0.92847936  0.33034969  0.02890119    -0.17700
C2369       C  0.53307836  0.32944797  0.02854309    -0.17700
C2370       C  0.53119768  0.33030434  0.42236943    -0.17700
H2371       H  0.87877886  0.35959878  0.44915877     0.15200
H2372       H  0.87954070  0.35897808  0.00479422     0.15200
H2373       H  0.58596214  0.31631967  0.44647677     0.15200
H2374       H  0.58704832  0.31597976  0.00218137     0.15200
H2375       H  0.94979032  0.31166370  0.36946635     0.13500
H2376       H  0.50491184  0.31249497  0.36765917     0.13500
H2377       H  0.95238607  0.31154268  0.08299124     0.13500
H2378       H  0.50740658  0.31325119  0.08416092     0.13500
H2379       H  0.95426975  0.31549047  0.47583093     0.26700
H2380       H  0.50248191  0.33852611  0.47588584     0.26700
C2381       C  0.70971065  0.07845353  0.12352349     0.24200
C2382       C  0.69444315  0.09549650  0.10357395    -0.23900
C2383       C  0.71014162  0.11259887  0.08412811     0.19100
C2384       C  0.74005564  0.11205642  0.08388255     0.24100
C2385       C  0.75540768  0.09435903  0.10302739    -0.23900
C2386       C  0.73989330  0.07795666  0.12330488     0.19000
F2387       F  0.75379980  0.06047741  0.14212359    -0.13800
F2388       F  0.69553662  0.06120741  0.14234477    -0.16200
F2389       F  0.75399297  0.12899857  0.06461693    -0.16200
F2390       F  0.69655582  0.12986812  0.06489829    -0.13800
C2391       C  0.83157741  0.24086753  0.07805773     0.24200
C2392       C  0.84965722  0.25606490  0.09701040    -0.23900
C2393       C  0.86522437  0.24059832  0.11779908     0.19100
C2394       C  0.86459911  0.21054012  0.11817218     0.24100
C2395       C  0.84808579  0.19516573  0.09798992    -0.23900
C2396       C  0.83080878  0.21067922  0.07853078     0.19000
F2397       F  0.81467354  0.19670563  0.05863375    -0.13800
F2398       F  0.81598946  0.25507000  0.05786103    -0.16200
F2399       F  0.88068342  0.19644902  0.13804321    -0.16200
F2400       F  0.88147532  0.25459362  0.13761005    -0.13800
C2401       C  0.58442335  0.21128595  0.11901119     0.24200
C2402       C  0.60029172  0.19559939  0.09853699    -0.23900
C2403       C  0.61824367  0.21070925  0.07948236     0.19100
C2404       C  0.61963527  0.24080363  0.08021910     0.24100
C2405       C  0.60291295  0.25664885  0.09991371    -0.23900
C2406       C  0.58553246  0.24146534  0.11953825     0.19000
F2407       F  0.56835304  0.25581402  0.13824883    -0.13800
F2408       F  0.56759372  0.19743949  0.13842659    -0.16200
F2409       F  0.63694396  0.25442767  0.06108199    -0.16200
F2410       F  0.63342474  0.19644629  0.05904200    -0.13800
C2411       C  0.74537870  0.33430838  0.08345961     0.24200
C2412       C  0.76027508  0.35549366  0.09901601    -0.23900
C2413       C  0.74475849  0.37596565  0.11482934     0.19100
C2414       C  0.71477164  0.37601694  0.11408582     0.24100
C2415       C  0.69970629  0.35546468  0.09752654    -0.23900
C2416       C  0.71542053  0.33399019  0.08308617     0.19000
F2417       F  0.70192177  0.31314808  0.06775277    -0.13800
F2418       F  0.75988449  0.31394996  0.06836894    -0.16200
F2419       F  0.70058200  0.39638904  0.12944516    -0.16200
F2420       F  0.75862440  0.39685839  0.12982763    -0.13800
C2421       C  0.62691260  0.37575986  0.21052599     0.24200
C2422       C  0.61001688  0.35605197  0.19496797    -0.23900
C2423       C  0.59484129  0.33472006  0.21015376     0.19100
C2424       C  0.59352465  0.33537847  0.24016671     0.24100
C2425       C  0.60819760  0.35681164  0.25571153    -0.23900
C2426       C  0.62641485  0.37577744  0.24066928     0.19000
F2427       F  0.64241653  0.39555293  0.25497626    -0.13800
F2428       F  0.64236307  0.39630114  0.19669022    -0.16200
F2429       F  0.57747087  0.31526641  0.25396916    -0.16200
F2430       F  0.58062961  0.31356895  0.19587077    -0.13800
C2431       C  0.60605044  0.07704260  0.24167256     0.24200
C2432       C  0.59266398  0.09952818  0.25690360    -0.23900
C2433       C  0.58111943  0.12288165  0.24146267     0.19100
C2434       C  0.58190057  0.12313886  0.21137526     0.24100
C2435       C  0.59390399  0.09982569  0.19618111    -0.23900
C2436       C  0.60669484  0.07721322  0.21180444     0.19000
F2437       F  0.61946636  0.05467722  0.19828911    -0.13800
F2438       F  0.61816138  0.05433327  0.25553706    -0.16200
F2439       F  0.56998030  0.14575246  0.19725924    -0.16200
F2440       F  0.56794850  0.14492814  0.25534380    -0.13800
C2441       C  0.61434136  0.21300314  0.37520851     0.24200
C2442       C  0.59990299  0.19709149  0.35400132    -0.23900
C2443       C  0.58704952  0.21187412  0.33090963     0.19100
C2444       C  0.58749362  0.24205880  0.32972251     0.24100
C2445       C  0.60076267  0.25812880  0.35174100    -0.23900
C2446       C  0.61465706  0.24308582  0.37420266     0.19000
F2447       F  0.62772142  0.25744273  0.39601880    -0.13800
F2448       F  0.62664798  0.19955600  0.39802790    -0.16200
F2449       F  0.57353467  0.25543245  0.30785163    -0.16200
F2450       F  0.57358767  0.19704988  0.30966311    -0.13800
C2451       C  0.83303802  0.08710037  0.21285501     0.24200
C2452       C  0.85354222  0.10313263  0.19743777    -0.23900
C2453       C  0.87228683  0.12133234  0.21275988     0.19100
C2454       C  0.87196567  0.12177187  0.24289009     0.24100
C2455       C  0.85304697  0.10386735  0.25825508    -0.23900
C2456       C  0.83292466  0.08731258  0.24292069     0.19000
F2457       F  0.81324175  0.07105201  0.25707162    -0.13800
F2458       F  0.81311167  0.07105465  0.19882579    -0.16200
F2459       F  0.89135105  0.13843018  0.25696631    -0.16200
F2460       F  0.89205410  0.13753417  0.19870834    -0.13800
C2461       C  0.73747516  0.11491042  0.36931742     0.24200
C2462       C  0.75342917  0.09900560  0.34914183    -0.23900
C2463       C  0.73841714  0.08512597  0.32664122     0.19100
C2464       C  0.70816841  0.08496695  0.32608882     0.24100
C2465       C  0.69233276  0.09919466  0.34769924    -0.23900
C2466       C  0.70756642  0.11510301  0.36854733     0.19000
F2467       F  0.69353935  0.13055716  0.38895680    -0.13800
F2468       F  0.75076112  0.13019399  0.39034250    -0.16200
F2469       F  0.69454883  0.06983011  0.30516853    -0.16200
F2470       F  0.75287058  0.07076884  0.30575079    -0.13800
C2471       C  0.87527511  0.33140409  0.24177151     0.24200
C2472       C  0.85768499  0.35091706  0.25686046    -0.23900
C2473       C  0.83982142  0.36955664  0.24101714     0.19100
C2474       C  0.83993699  0.36909536  0.21097612     0.24100
C2475       C  0.85825726  0.35032296  0.19584067    -0.23900
C2476       C  0.87562928  0.33118232  0.21160196     0.19000
F2477       F  0.89412219  0.31325726  0.19791260    -0.13800
F2478       F  0.89335243  0.31355724  0.25612893    -0.16200
F2479       F  0.82216410  0.38735682  0.19671110    -0.16200
F2480       F  0.82232664  0.38861570  0.25453949    -0.13800
C2481       C  0.74191202  0.36797959  0.33166228     0.24200
C2482       C  0.75764955  0.35272805  0.35259405    -0.23900
C2483       C  0.74248739  0.33599859  0.37286154     0.19100
C2484       C  0.71246710  0.33578576  0.37318299     0.24100
C2485       C  0.69683036  0.35290047  0.35375927    -0.23900
C2486       C  0.71184728  0.36829766  0.33245467     0.19000
F2487       F  0.69739120  0.38405071  0.31256424    -0.13800
F2488       F  0.75551113  0.38383937  0.31127792    -0.16200
F2489       F  0.69880036  0.32008248  0.39365658    -0.16200
F2490       F  0.75668910  0.32035861  0.39302306    -0.13800
C2491       C  0.83162896  0.21238094  0.37700362     0.24200
C2492       C  0.84712045  0.19654878  0.35649860    -0.23900
C2493       C  0.86250493  0.21126765  0.33500647     0.19100
C2494       C  0.86395407  0.24128148  0.33518103     0.24100
C2495       C  0.84963382  0.25707522  0.35660622    -0.23900
C2496       C  0.83263431  0.24240805  0.37686904     0.19000
F2497       F  0.81839753  0.25702535  0.39773533    -0.13800
F2498       F  0.81714551  0.19885043  0.39842392    -0.16200
F2499       F  0.87950697  0.25484649  0.31451906    -0.16200
F2500       F  0.87649391  0.19652756  0.31403900    -0.13800
O2501       O  0.87753117  0.29937417  0.85154525    -0.84800
O2502       O  0.86915756  0.33312850  0.80374270    -0.81800
C2503       C  0.85931148  0.35343788  0.78871294     0.98700
O2504       O  0.85188084  0.37676146  0.80054374    -0.81900
O2505       O  0.80408165  0.36519324  0.83421372    -0.84500
C2506       C  0.78934626  0.35606812  0.85511291     1.03200
O2507       O  0.80128482  0.35138947  0.87915362    -0.77300
O2508       O  0.83442306  0.30362045  0.87022712    -0.77500
C2509       C  0.85384040  0.28839474  0.85912380     1.03200
O2510       O  0.91016422  0.34538740  0.87717695    -0.84800
O2511       O  0.90516114  0.37728810  0.82811482    -0.81800
C2512       C  0.90010195  0.40261172  0.83680247     0.98700
O2513       O  0.87587891  0.40897763  0.84700239    -0.81900
O2514       O  0.82593434  0.40339890  0.87780290    -0.84500
C2515       C  0.83638560  0.40058043  0.90272639     1.03200
O2516       O  0.84866841  0.37740231  0.90955703    -0.77300
O2517       O  0.87879124  0.32633557  0.90612058    -0.77400
C2518       C  0.90414405  0.33453887  0.90118918     1.03100
Cr2519     Cr  0.88797999  0.33991161  0.84138615     1.93700
Cr2520     Cr  0.84068271  0.38606163  0.84101339     1.93200
Cr2521     Cr  0.84194204  0.34087927  0.88875576     1.39100
O2522       O  0.85678888  0.35533577  0.85680291    -1.22500
O2523       O  0.86541763  0.12069137  0.80504131    -0.84800
O2524       O  0.87380539  0.15372883  0.85314008    -0.81800
C2525       C  0.84995977  0.16509620  0.85925708     0.98700
O2526       O  0.82965053  0.15010643  0.86908900    -0.81900
O2527       O  0.79626419  0.10176486  0.87726743    -0.84500
C2528       C  0.78512834  0.09573307  0.85308191     1.03200
O2529       O  0.80063350  0.08576866  0.83320094    -0.77300
O2530       O  0.84938498  0.07653294  0.80109279    -0.77500
C2531       C  0.85565767  0.10050915  0.78981097     1.03200
O2532       O  0.90209042  0.07664805  0.82868430    -0.84800
O2533       O  0.90553618  0.10770156  0.87867124    -0.81800
C2534       C  0.89883107  0.11899603  0.90230469     0.98700
O2535       O  0.87327351  0.12727878  0.90654665    -0.81900
O2536       O  0.84255843  0.07668362  0.91028747    -0.84500
C2537       C  0.83206540  0.05269346  0.90327052     1.03200
O2538       O  0.82285622  0.04896742  0.87795525    -0.77300
O2539       O  0.87381025  0.04459215  0.84808977    -0.77400
C2540       C  0.89788287  0.05132732  0.83774206     1.03100
Cr2541     Cr  0.88412762  0.11348826  0.84254583     1.93700
Cr2542     Cr  0.83658358  0.11275258  0.88834494     1.93200
Cr2543     Cr  0.83786046  0.06646901  0.84128941     1.39100
O2544       O  0.85268732  0.09778756  0.85721733    -1.22500
O2545       O  0.64934142  0.10240919  0.87476810    -0.84800
O2546       O  0.61578677  0.15060660  0.86859278    -0.81800
C2547       C  0.59624694  0.16554063  0.85719109     0.98700
O2548       O  0.57284618  0.15409209  0.84950261    -0.81900
O2549       O  0.58139273  0.11877782  0.80308671    -0.84500
C2550       C  0.58977185  0.09757103  0.78849195     1.03200
O2551       O  0.59461788  0.07383270  0.80067229    -0.77300
O2552       O  0.64513570  0.08562232  0.83080786    -0.77500
C2553       C  0.66055334  0.09597593  0.85073728     1.03200
O2554       O  0.60414469  0.07600170  0.90793638    -0.84800
O2555       O  0.57291301  0.12614648  0.90564338    -0.81800
C2556       C  0.54722705  0.11879819  0.90088107     0.98700
O2557       O  0.54023433  0.10906587  0.87664877    -0.81900
O2558       O  0.54433652  0.07568196  0.82880778    -0.84500
C2559       C  0.54855125  0.05071777  0.83898594     1.03200
O2560       O  0.57274056  0.04407885  0.84941075    -0.77300
O2561       O  0.62578266  0.05001540  0.87600596    -0.77400
C2562       C  0.61791924  0.05360694  0.90155053     1.03100
Cr2563     Cr  0.60934917  0.11259603  0.88682127     1.93700
Cr2564     Cr  0.56222252  0.11328092  0.84063451     1.93200
Cr2565     Cr  0.60824375  0.06599294  0.84035524     1.39100
O2566       O  0.59344093  0.09771293  0.85576252    -1.22500
O2567       O  0.60268703  0.30248719  0.87689820    -0.84800
O2568       O  0.65047233  0.33622581  0.86750897    -0.81800
C2569       C  0.66535838  0.35638710  0.85704808     0.98700
O2570       O  0.65387935  0.38035198  0.85066318    -0.81900
O2571       O  0.62134682  0.37275491  0.80255854    -0.84500
C2572       C  0.60295263  0.36047665  0.78698270     1.03200
O2573       O  0.57933866  0.35223805  0.79754711    -0.77300
O2574       O  0.58972252  0.30470377  0.83183331    -0.77500
C2575       C  0.59808134  0.29009300  0.85315463     1.03200
O2576       O  0.57639624  0.34934080  0.90682464    -0.84800
O2577       O  0.62726812  0.37997268  0.90376770    -0.81800
C2578       C  0.61787326  0.40517926  0.90014843     0.98700
O2579       O  0.60647264  0.41197053  0.87657637    -0.81900
O2580       O  0.57572539  0.40760132  0.82718466    -0.84500
C2581       C  0.55025538  0.40159636  0.83448048     1.03200
O2582       O  0.54445207  0.37630690  0.84248494    -0.77300
O2583       O  0.55114893  0.32679113  0.87457415    -0.77400
C2584       C  0.55395046  0.33579499  0.90006371     1.03100
Cr2585     Cr  0.61301556  0.34321349  0.88619022     1.93700
Cr2586     Cr  0.61320550  0.39057922  0.84032258     1.93200
Cr2587     Cr  0.56859496  0.34148823  0.83779471     1.39100
O2588       O  0.59845403  0.35835502  0.85444081    -1.22500
O2589       O  0.65386426  0.33656497  0.58417830    -0.84800
O2590       O  0.60721041  0.30079272  0.57433828    -0.81800
C2591       C  0.60148064  0.28861677  0.59799246     0.98700
O2592       O  0.59274982  0.30343071  0.61898154    -0.81900
O2593       O  0.58208699  0.35103782  0.65277981    -0.84500
C2594       C  0.60565372  0.35924417  0.66354345     1.03200
O2595       O  0.62432985  0.37128655  0.64804744    -0.77300
O2596       O  0.65574876  0.38126793  0.59919846    -0.77500
C2597       C  0.66810817  0.35758818  0.59389546     1.03200
O2598       O  0.62904232  0.37933214  0.54719276    -0.84800
O2599       O  0.57956281  0.34664571  0.54350254    -0.81800
C2600       C  0.55671942  0.33380288  0.55047228     0.98700
O2601       O  0.55408096  0.32472758  0.57595015    -0.81900
O2602       O  0.54692473  0.37447267  0.60764562    -0.84500
C2603       C  0.55251086  0.39934584  0.61696942     1.03200
O2604       O  0.57776462  0.40489973  0.62500972    -0.77300
O2605       O  0.60675400  0.41035120  0.57446777    -0.77400
C2606       C  0.61847012  0.40410278  0.55088589     1.03100
Cr2607     Cr  0.61629372  0.34193062  0.56478157     1.93700
Cr2608     Cr  0.57134535  0.33984454  0.61267408     1.93200
Cr2609     Cr  0.61509750  0.38934559  0.61053899     1.39100
O2610       O  0.60109641  0.35686776  0.59627314    -1.22500
O2611       O  0.83514236  0.30298492  0.58250696    -0.84800
O2612       O  0.80356633  0.35188589  0.57306985    -0.81800
C2613       C  0.79172784  0.35746726  0.59689194     0.98700
O2614       O  0.80640845  0.36609403  0.61798379    -0.81900
O2615       O  0.85392745  0.37613707  0.65213120    -0.84500
C2616       C  0.86073752  0.35268588  0.66404929     1.03200
O2617       O  0.87061088  0.33222426  0.64921479    -0.77300
O2618       O  0.87815167  0.29822249  0.60123999    -0.77500
C2619       C  0.85425799  0.28747450  0.59381462     1.03200
O2620       O  0.88042960  0.32482732  0.54694040    -0.84800
O2621       O  0.85131707  0.37661387  0.54322313    -0.81800
C2622       C  0.83951690  0.40003380  0.55000803     0.98700
O2623       O  0.82941285  0.40333984  0.57495775    -0.81900
O2624       O  0.87893381  0.40782610  0.60612985    -0.84500
C2625       C  0.90293690  0.40104470  0.61641344     1.03200
O2626       O  0.90770620  0.37554674  0.62479507    -0.77300
O2627       O  0.91196829  0.34377486  0.57573545    -0.77400
C2628       C  0.90580629  0.33307796  0.55169796     1.03100
Cr2629     Cr  0.84380538  0.34024580  0.56398800     1.93700
Cr2630     Cr  0.84340421  0.38574942  0.61167876     1.93200
Cr2631     Cr  0.88962823  0.33855527  0.61150037     1.39100
O2632       O  0.85880532  0.35458025  0.59600472    -1.22500
O2633       O  0.61719633  0.14890517  0.58579076    -0.84800
O2634       O  0.65109247  0.10096303  0.57725345    -0.81800
C2635       C  0.66261229  0.09399382  0.60097389     0.98700
O2636       O  0.64728384  0.08450858  0.62128615    -0.81900
O2637       O  0.59783652  0.07391256  0.65265337    -0.84500
C2638       C  0.59160427  0.09756468  0.66450078     1.03200
O2639       O  0.58213172  0.11818106  0.64963484    -0.77300
O2640       O  0.57315866  0.15229894  0.60202088    -0.77500
C2641       C  0.59694310  0.16390509  0.59576856     1.03200
O2642       O  0.57412934  0.12555768  0.54791043    -0.84800
O2643       O  0.60509418  0.07547268  0.54480200    -0.81800
C2644       C  0.61851416  0.05281954  0.55103757     0.98700
O2645       O  0.62656516  0.04886031  0.57653890    -0.81900
O2646       O  0.57510136  0.04216109  0.60524420    -0.84500
C2647       C  0.55110453  0.04864233  0.61603639     1.03200
O2648       O  0.54666355  0.07384103  0.62536569    -0.77300
O2649       O  0.54212394  0.10546997  0.57562112    -0.77400
C2650       C  0.54878086  0.11671739  0.55190854     1.03100
Cr2651     Cr  0.61074363  0.11156533  0.56636246     1.93700
Cr2652     Cr  0.61036888  0.06488027  0.61282124     1.93200
Cr2653     Cr  0.56348233  0.11135008  0.61200036     1.39100
O2654       O  0.59507336  0.09624035  0.59732217    -1.22500
O2655       O  0.87516888  0.15216599  0.60229197    -0.84800
O2656       O  0.86711554  0.11901150  0.65062645    -0.81800
C2657       C  0.85666635  0.09917652  0.66590955     0.98700
O2658       O  0.85007385  0.07516796  0.65478446    -0.81900
O2659       O  0.80226224  0.08286911  0.62086618    -0.84500
C2660       C  0.78718561  0.09214204  0.60034111     1.03200
O2661       O  0.79890363  0.09874228  0.57666413    -0.77300
O2662       O  0.83120880  0.14805421  0.58591646    -0.77500
C2663       C  0.85129100  0.16343054  0.59571855     1.03200
O2664       O  0.90772984  0.10583515  0.57702223    -0.84800
O2665       O  0.90434459  0.07518464  0.62756303    -0.81800
C2666       C  0.90027392  0.04962437  0.61908960     0.98700
O2667       O  0.87625182  0.04258905  0.60888188    -0.81900
O2668       O  0.82656667  0.04649902  0.57710417    -0.84500
C2669       C  0.83555484  0.05088621  0.55178433     1.03200
O2670       O  0.84611594  0.07489790  0.54517178    -0.77300
O2671       O  0.87556772  0.12580671  0.54937345    -0.77400
C2672       C  0.90092906  0.11701959  0.55330110     1.03100
Cr2673     Cr  0.88605064  0.11182614  0.61318886     1.93700
Cr2674     Cr  0.84003084  0.06434273  0.61423270     1.93200
Cr2675     Cr  0.83909908  0.11065531  0.56691354     1.39100
O2676       O  0.85483891  0.09581082  0.59839251    -1.22500
N2677       N  0.93271204  0.47556811  0.61947929    -0.36000
N2678       N  0.97763441  0.43034197  0.62109989    -0.56600
N2679       N  0.52078120  0.47433232  0.61813472    -0.36000
N2680       N  0.97590473  0.01933260  0.62166702    -0.56600
C2681       C  0.91762662  0.45174522  0.62639204     0.27600
C2682       C  0.91663968  0.99864300  0.62703817     0.27600
C2683       C  0.53625251  0.45104085  0.62653468     0.27500
C2684       C  0.53555835  0.99810154  0.62589007     0.27500
C2685       C  0.95413622  0.41609840  0.61173952     0.36200
C2686       C  0.50064383  0.41540230  0.61129823     0.36200
C2687       C  0.95257373  0.03566960  0.61540150     0.36200
C2688       C  0.49912594  0.03480194  0.61348039     0.36200
C2689       C  0.89177010  0.45970086  0.63885578    -0.21300
C2690       C  0.89115053  0.48933514  0.63924637    -0.21300
C2691       C  0.56079376  0.46048574  0.64074388    -0.21300
C2692       C  0.56045114  0.49012272  0.63999877    -0.21300
C2693       C  0.96218142  0.39257187  0.59554179    -0.22400
C2694       C  0.99148332  0.39215200  0.59499992    -0.22400
C2695       C  0.96110051  0.06142352  0.60328399    -0.22400
C2696       C  0.99036873  0.06081751  0.60196232    -0.22400
C2697       C  0.92559736  0.42339836  0.61879068    -0.17700
C2698       C  0.92379506  0.02762308  0.62103383    -0.17700
C2699       C  0.52800671  0.02656988  0.61834986    -0.17700
C2700       C  0.52941667  0.42217913  0.61865489    -0.17700
H2701       H  0.87489553  0.44567722  0.64653845     0.15200
H2702       H  0.87379293  0.00245817  0.64741823     0.15200
H2703       H  0.57735287  0.44790577  0.65100499     0.15200
H2704       H  0.57668491  0.00418640  0.64892340     0.15200
H2705       H  0.94848814  0.37792286  0.58418506     0.13500
H2706       H  0.50399840  0.37700813  0.58272656     0.13500
H2707       H  0.94790487  0.07881400  0.59573884     0.13500
H2708       H  0.50340757  0.07775097  0.59333118     0.13500
H2709       H  0.95122201  0.47587111  0.60695279     0.26700
H2710       H  0.50296308  0.47419803  0.60458022     0.26700
N2711       N  0.51821257  0.47643243  0.83642818    -0.36000
N2712       N  0.97331496  0.02125521  0.83493254    -0.56600
N2713       N  0.93011300  0.47721756  0.83521292    -0.36000
N2714       N  0.97494548  0.43233204  0.83194431    -0.56600
C2715       C  0.53263098  0.00048955  0.82882605     0.27600
C2716       C  0.53347961  0.45350370  0.82677230     0.27600
C2717       C  0.91397420  0.00055133  0.82875180     0.27500
C2718       C  0.91477955  0.45365517  0.82796804     0.27500
C2719       C  0.99656249  0.03658088  0.84329727     0.36200
C2720       C  0.94996504  0.03715333  0.84199278     0.36200
C2721       C  0.99818269  0.41718575  0.84100869     0.36200
C2722       C  0.95156459  0.41759790  0.84096721     0.36200
C2723       C  0.55700172  0.49303070  0.81356994    -0.21300
C2724       C  0.55746156  0.46342997  0.81203500    -0.21300
C2725       C  0.88822258  0.49169246  0.81669191    -0.21300
C2726       C  0.88872041  0.46205442  0.81622236    -0.21300
C2727       C  0.98788101  0.06205006  0.85595990    -0.22400
C2728       C  0.95852026  0.06247174  0.85503387    -0.22400
C2729       C  0.98927895  0.39327987  0.85647690    -0.22400
C2730       C  0.95997542  0.39352267  0.85615670    -0.22400
C2731       C  0.52531813  0.02870381  0.83737620    -0.17700
C2732       C  0.52693660  0.42437854  0.83370987    -0.17700
C2733       C  0.92278578  0.42510845  0.83474653    -0.17700
C2734       C  0.92121824  0.02926368  0.83585215    -0.17700
H2735       H  0.57278668  0.00743855  0.80438873     0.15200
H2736       H  0.57363795  0.45110399  0.80089744     0.15200
H2737       H  0.87069438  0.00507452  0.80935943     0.15200
H2738       H  0.87160182  0.44833423  0.80853653     0.15200
H2739       H  0.50108404  0.07864080  0.86504063     0.13500
H2740       H  0.94527243  0.07942330  0.86334037     0.13500
H2741       H  0.50197271  0.37775696  0.86813256     0.13500
H2742       H  0.94656810  0.37836483  0.86709864     0.13500
H2743       H  0.00080059  0.47574902  0.85048534     0.26700
H2744       H  0.94884955  0.47709210  0.84740049     0.26700
N2745       N  0.62167523  0.47921100  0.93184902    -0.36000
N2746       N  0.62306387  0.43438343  0.97573474    -0.56600
N2747       N  0.62145906  0.47863300  0.52006494    -0.36000
N2748       N  0.62494585  0.02290144  0.97612381    -0.56600
C2749       C  0.62785965  0.45554394  0.91605140     0.27600
C2750       C  0.62910655  0.00244207  0.91592776     0.27600
C2751       C  0.62727866  0.45480721  0.53579178     0.27500
C2752       C  0.62867834  0.00167444  0.53632418     0.27500
C2753       C  0.61565873  0.41868156  0.95235291     0.36200
C2754       C  0.61571572  0.41832797  0.49891736     0.36200
C2755       C  0.62570350  0.04052873  0.95298337     0.36200
C2756       C  0.62582795  0.04022862  0.49944072     0.36200
C2757       C  0.64000384  0.46370047  0.89015468    -0.21300
C2758       C  0.64079071  0.49322351  0.89001419    -0.21300
C2759       C  0.63878808  0.46267598  0.56205594    -0.21300
C2760       C  0.63970855  0.49212838  0.56245008    -0.21300
C2761       C  0.60368074  0.39281892  0.96082323    -0.22400
C2762       C  0.60377300  0.39260416  0.99019097    -0.22400
C2763       C  0.62943425  0.06880473  0.96170442    -0.22400
C2764       C  0.62959164  0.06862022  0.99095779    -0.22400
C2765       C  0.62066582  0.42698777  0.92353530    -0.17700
C2766       C  0.62441728  0.03151858  0.92399077    -0.17700
C2767       C  0.62452407  0.03088475  0.52838385    -0.17700
C2768       C  0.62063356  0.42627769  0.52781450    -0.17700
H2769       H  0.64764865  0.44983543  0.87309775     0.15200
H2770       H  0.65002876  0.00594116  0.87292413     0.15200
H2771       H  0.64613310  0.44868424  0.57915502     0.12800
H2772       H  0.64879618  0.00446416  0.57986302     0.15200
H2773       H  0.59540226  0.37589381  0.94746292     0.13500
H2774       H  0.59562350  0.37547812  0.50340972     0.13500
H2775       H  0.63317346  0.08768411  0.94862800     0.13500
H2776       H  0.63346808  0.08736593  0.50413192     0.13500
H2777       H  0.60963184  0.47953599  0.95069197     0.26700
H2778       H  0.60993333  0.47917947  0.50090592     0.26700
N2779       N  0.92950398  0.12432183  0.97752801    -0.36000
N2780       N  0.97457437  0.12077874  0.52103820    -0.56600
N2781       N  0.51835577  0.12376627  0.97662607    -0.36000
N2782       N  0.97324088  0.12283022  0.93295466    -0.56600
C2783       C  0.91484512  0.11532708  0.50105007     0.27600
C2784       C  0.91405816  0.11645815  0.95410114     0.27600
C2785       C  0.53354555  0.11471417  0.49983162     0.27500
C2786       C  0.53277319  0.11518223  0.95283358     0.27500
C2787       C  0.95153823  0.12654224  0.53775605     0.36200
C2788       C  0.49799435  0.12667980  0.53720150     0.36200
C2789       C  0.94980551  0.12888626  0.91683948     0.36200
C2790       C  0.49638673  0.12839232  0.91628832     0.36200
C2791       C  0.88997878  0.10156161  0.99233368    -0.21300
C2792       C  0.88950588  0.10221916  0.96288291    -0.21300
C2793       C  0.55762055  0.09995741  0.99064336    -0.21300
C2794       C  0.55710103  0.10018520  0.96110705    -0.21300
C2795       C  0.96036697  0.13666697  0.56435487    -0.22400
C2796       C  0.98977387  0.13680832  0.56398085    -0.22400
C2797       C  0.95811991  0.13894573  0.89003712    -0.22400
C2798       C  0.98756883  0.13865143  0.88967926    -0.22400
C2799       C  0.92289028  0.12020418  0.53006194    -0.17700
C2800       C  0.92126487  0.12242246  0.92511065    -0.17700
C2801       C  0.52502325  0.12151363  0.92398756    -0.17700
C2802       C  0.52642741  0.12009137  0.52897355    -0.17700
H2803       H  0.87401378  0.09149133  0.50557071     0.15200
H2804       H  0.87310717  0.09273176  0.94965900     0.15200
H2805       H  0.57354941  0.08951834  0.50378107     0.15200
H2806       H  0.57257875  0.08985812  0.94743165     0.15200
H2807       H  0.94708996  0.14314449  0.58229459     0.13500
H2808       H  0.50346981  0.14337422  0.58158586     0.13500
H2809       H  0.94447116  0.14550041  0.87238644     0.13500
H2810       H  0.50082044  0.14504413  0.87169574     0.13500
H2811       H  0.94775919  0.13742505  0.97756326     0.26700
H2812       H  0.50052472  0.13744193  0.97701866     0.26700
N2813       N  0.83528578  0.43213178  0.97645503    -0.36000
N2814       N  0.83043248  0.47637464  0.93243209    -0.56600
N2815       N  0.83304738  0.02021295  0.97713021    -0.36000
N2816       N  0.83305859  0.47564945  0.52117204    -0.56600
C2817       C  0.82813782  0.41624206  0.95319679     0.27600
C2818       C  0.82972271  0.41584174  0.49985386     0.27600
C2819       C  0.82496595  0.03603413  0.95403472     0.27500
C2820       C  0.82644212  0.03563861  0.50092894     0.27500
C2821       C  0.83712002  0.45322231  0.91596940     0.36200
C2822       C  0.83571377  0.00003138  0.91617364     0.36200
C2823       C  0.84063779  0.45235545  0.53696120     0.36200
C2824       C  0.83919443  0.99898917  0.53749317     0.36200
C2825       C  0.81743043  0.38979407  0.96196463    -0.21300
C2826       C  0.81849629  0.38951277  0.99145188    -0.21300
C2827       C  0.81267986  0.06159411  0.96330867    -0.21300
C2828       C  0.81366746  0.06136930  0.99288020    -0.21300
C2829       C  0.84660957  0.46227178  0.88930549    -0.22400
C2830       C  0.84567308  0.49168011  0.88941633    -0.22400
C2831       C  0.85149233  0.46101864  0.56323922    -0.22400
C2832       C  0.85060653  0.49035834  0.56356455    -0.22400
C2833       C  0.83355102  0.42409711  0.92439249    -0.17700
C2834       C  0.83663361  0.42342107  0.52838384    -0.17700
C2835       C  0.83351360  0.02782833  0.52953074    -0.17700
C2836       C  0.83053704  0.02886738  0.92494260    -0.17700
H2837       H  0.80987128  0.37234045  0.94854423     0.15200
H2838       H  0.81181541  0.37184354  0.50504474     0.15200
H2839       H  0.80399578  0.07874311  0.95017434     0.15200
H2840       H  0.80587661  0.07830558  0.50681253     0.15200
H2841       H  0.85344151  0.44935227  0.87139777     0.13500
H2842       H  0.85158320  0.00496597  0.87150267     0.13500
H2843       H  0.85944044  0.44790889  0.58050276     0.13500
H2844       H  0.85777187  0.00348463  0.58114576     0.13500
H2845       H  0.84680184  0.45131765  0.97622569     0.26700
H2846       H  0.84560123  0.00170334  0.97659387     0.26700
N2847       N  0.93581780  0.32812276  0.97612114    -0.36000
N2848       N  0.97915821  0.33026865  0.93105151    -0.56600
N2849       N  0.52367959  0.33176516  0.97558886    -0.36000
N2850       N  0.98064795  0.32932531  0.52071266    -0.56600
C2851       C  0.92012826  0.33639257  0.95288691     0.27600
C2852       C  0.92080643  0.33599426  0.49986689     0.27600
C2853       C  0.54017476  0.32849862  0.95168941     0.27500
C2854       C  0.54104937  0.32821827  0.49888087     0.27500
C2855       C  0.95554064  0.32559486  0.91476532     0.36200
C2856       C  0.50214218  0.32646064  0.91372417     0.36200
C2857       C  0.95722301  0.32474376  0.53733899     0.36200
C2858       C  0.50401104  0.32600080  0.53777030     0.36200
C2859       C  0.89535695  0.34990941  0.96205651    -0.21300
C2860       C  0.89579126  0.34963295  0.99143334    -0.21300
C2861       C  0.56796848  0.32191530  0.96003282    -0.21300
C2862       C  0.56852677  0.32175305  0.98943107    -0.21300
C2863       C  0.96349832  0.31758524  0.88727897    -0.22400
C2864       C  0.99277632  0.31840216  0.88644290    -0.22400
C2865       C  0.96572092  0.31721747  0.56482712    -0.22400
C2866       C  0.99502404  0.31841421  0.56531259    -0.22400
C2867       C  0.92709184  0.33134117  0.92363844    -0.17700
C2868       C  0.92848541  0.33035876  0.52890058    -0.17700
C2869       C  0.53307540  0.32946153  0.52854474    -0.17700
C2870       C  0.53120688  0.33031651  0.92236776    -0.17700
H2871       H  0.87874690  0.35951361  0.94915390     0.15200
H2872       H  0.87957968  0.35905147  0.50480518     0.15200
H2873       H  0.58597853  0.31635336  0.94647582     0.15200
H2874       H  0.58703628  0.31596403  0.50218430     0.15200
H2875       H  0.94980373  0.31168372  0.86945122     0.13500
H2876       H  0.50492117  0.31251538  0.86765706     0.13500
H2877       H  0.95238866  0.31152529  0.58298326     0.13500
H2878       H  0.50740045  0.31323850  0.58414894     0.13500
H2879       H  0.95428453  0.31549399  0.97583085     0.26700
H2880       H  0.50248358  0.33850410  0.97588849     0.26700
C2881       C  0.70972378  0.07844650  0.62349279     0.24200
C2882       C  0.69445912  0.09550254  0.60355341    -0.23900
C2883       C  0.71015852  0.11261851  0.58412022     0.19100
C2884       C  0.74007333  0.11207193  0.58387485     0.24100
C2885       C  0.75542174  0.09436222  0.60301272    -0.23900
C2886       C  0.73990488  0.07794847  0.62327739     0.19000
F2887       F  0.75380783  0.06045283  0.64208325    -0.13800
F2888       F  0.69554781  0.06118553  0.64229862    -0.16200
F2889       F  0.75401455  0.12901811  0.56461517    -0.16200
F2890       F  0.69657277  0.12990310  0.56490380    -0.13800
C2891       C  0.83151901  0.24086360  0.57819498     0.24200
C2892       C  0.84967771  0.25606251  0.59707125    -0.23900
C2893       C  0.86531637  0.24059286  0.61780627     0.19100
C2894       C  0.86468976  0.21053347  0.61818272     0.24100
C2895       C  0.84810698  0.19515810  0.59805681    -0.23900
C2896       C  0.83074733  0.21067475  0.57867415     0.19000
F2897       F  0.81451346  0.19670376  0.55885643    -0.13800
F2898       F  0.81584546  0.25506434  0.55806437    -0.16200
F2899       F  0.88083896  0.19644347  0.63800191    -0.16200
F2900       F  0.88164025  0.25458451  0.63755966    -0.13800
C2901       C  0.58454200  0.21126744  0.61909291     0.24200
C2902       C  0.60034055  0.19558771  0.59856059    -0.23900
C2903       C  0.61822675  0.21070133  0.57944850     0.19100
C2904       C  0.61961741  0.24079500  0.58018427     0.24100
C2905       C  0.60294310  0.25663741  0.59992247    -0.23900
C2906       C  0.58563489  0.24144823  0.61960890     0.19000
F2907       F  0.56851506  0.25579002  0.63837956    -0.13800
F2908       F  0.56780170  0.19741150  0.63857929    -0.16200
F2909       F  0.63687966  0.25442042  0.56100619    -0.16200
F2910       F  0.63334115  0.19644184  0.55895610    -0.13800
C2911       C  0.74538610  0.33432654  0.58344919     0.24200
C2912       C  0.76028069  0.35551861  0.59899856    -0.23900
C2913       C  0.74476173  0.37599969  0.61479780     0.19100
C2914       C  0.71477416  0.37603898  0.61406452     0.24100
C2915       C  0.69971059  0.35547437  0.59751814    -0.23900
C2916       C  0.71542815  0.33400251  0.58307818     0.19000
F2917       F  0.70193270  0.31315939  0.56774336    -0.13800
F2918       F  0.75989344  0.31396896  0.56835891    -0.16200
F2919       F  0.70058197  0.39641346  0.62941843    -0.16200
F2920       F  0.75862546  0.39691353  0.62976891    -0.13800
C2921       C  0.62693511  0.37576328  0.71052298     0.24200
C2922       C  0.61005591  0.35603884  0.69496745    -0.23900
C2923       C  0.59490324  0.33469319  0.71015693     0.19100
C2924       C  0.59358073  0.33535924  0.74017053     0.24100
C2925       C  0.60822750  0.35681327  0.75571168    -0.23900
C2926       C  0.62643367  0.37578793  0.74066671     0.19000
F2927       F  0.64241840  0.39557922  0.75497091    -0.13800
F2928       F  0.64236888  0.39631512  0.69668406    -0.16200
F2929       F  0.57754729  0.31523415  0.75397752    -0.16200
F2930       F  0.58071779  0.31352273  0.69587634    -0.13800
C2931       C  0.60594718  0.07692378  0.74167379     0.24200
C2932       C  0.59269244  0.09948858  0.75690515    -0.23900
C2933       C  0.58128633  0.12291012  0.74146313     0.19100
C2934       C  0.58206320  0.12315802  0.71137564     0.24100
C2935       C  0.59393348  0.09977506  0.69618255    -0.23900
C2936       C  0.60659295  0.07708932  0.71180766     0.19000
F2937       F  0.61922836  0.05447244  0.69829846    -0.13800
F2938       F  0.61792154  0.05413855  0.75553345    -0.16200
F2939       F  0.57027718  0.14584224  0.69725925    -0.16200
F2940       F  0.56826505  0.14504660  0.75534327    -0.13800
C2941       C  0.61441400  0.21300289  0.87513048     0.24200
C2942       C  0.59990545  0.19709543  0.85396660    -0.23900
C2943       C  0.58699974  0.21188555  0.83090720     0.19100
C2944       C  0.58744620  0.24207109  0.82972511     0.24100
C2945       C  0.60077848  0.25813446  0.85171013    -0.23900
C2946       C  0.61474209  0.24308618  0.87412242     0.19000
F2947       F  0.62789900  0.25744115  0.89588358    -0.13800
F2948       F  0.62678911  0.19955164  0.89790979    -0.16200
F2949       F  0.57343133  0.25545286  0.80789487    -0.16200
F2950       F  0.57348867  0.19706935  0.80968631    -0.13800
C2951       C  0.83303644  0.08708992  0.71285138     0.24200
C2952       C  0.85353907  0.10312930  0.69743949    -0.23900
C2953       C  0.87226820  0.12134195  0.71276594     0.19100
C2954       C  0.87194583  0.12177309  0.74289579     0.24100
C2955       C  0.85303273  0.10385742  0.75825506    -0.23900
C2956       C  0.83291506  0.08730197  0.74291638     0.19000
F2957       F  0.81322883  0.07104108  0.75706209    -0.13800
F2958       F  0.81311925  0.07103701  0.69881752    -0.16200
F2959       F  0.89132304  0.13843706  0.75697699    -0.16200
F2960       F  0.89201897  0.13756889  0.69871977    -0.13800
C2961       C  0.73747758  0.11491906  0.86931493     0.24200
C2962       C  0.75342723  0.09898485  0.84915883    -0.23900
C2963       C  0.73841382  0.08507455  0.82667951     0.19100
C2964       C  0.70816695  0.08491380  0.82613159     0.24100
C2965       C  0.69233453  0.09918065  0.84771761    -0.23900
C2966       C  0.70756880  0.11511554  0.86854466     0.19000
F2967       F  0.69354196  0.13059955  0.88893189    -0.13800
F2968       F  0.75076800  0.13022961  0.89031777    -0.16200
F2969       F  0.69454590  0.06973320  0.80524408    -0.16200
F2970       F  0.75286462  0.07068831  0.80580734    -0.13800
C2971       C  0.87528276  0.33143950  0.74176981     0.24200
C2972       C  0.85769876  0.35095636  0.75686107    -0.23900
C2973       C  0.83985147  0.36961295  0.74101793     0.19100
C2974       C  0.83997058  0.36915681  0.71097630     0.24100
C2975       C  0.85827679  0.35037099  0.69583970    -0.23900
C2976       C  0.87563656  0.33121923  0.71160069     0.19000
F2977       F  0.89411365  0.31327813  0.69791096    -0.13800
F2978       F  0.89335291  0.31358325  0.75612453    -0.16200
F2979       F  0.82221149  0.38743286  0.69671259    -0.16200
F2980       F  0.82236876  0.38868321  0.75454027    -0.13800
C2981       C  0.74192264  0.36795788  0.83170141     0.24200
C2982       C  0.75765860  0.35272837  0.85264932    -0.23900
C2983       C  0.74249699  0.33600896  0.87292668     0.19100
C2984       C  0.71247626  0.33578674  0.87323900     0.24100
C2985       C  0.69684178  0.35287350  0.85378854    -0.23900
C2986       C  0.71185936  0.36825437  0.83247478     0.19000
F2987       F  0.69740408  0.38397393  0.81255750    -0.13800
F2988       F  0.75552094  0.38382047  0.81131910    -0.16200
F2989       F  0.69880640  0.32010533  0.89372770    -0.16200
F2990       F  0.75669824  0.32038996  0.89310504    -0.13800
C2991       C  0.83157387  0.21237690  0.87695049     0.24200
C2992       C  0.84709944  0.19654107  0.85647334    -0.23900
C2993       C  0.86250963  0.21125887  0.83499891     0.19100
C2994       C  0.86395740  0.24127336  0.83517093     0.24100
C2995       C  0.84960860  0.25707140  0.85657502    -0.23900
C2996       C  0.83257533  0.24240506  0.87681078     0.19000
F2997       F  0.81829983  0.25702396  0.89764922    -0.13800
F2998       F  0.81705851  0.19885043  0.89835152    -0.16200
F2999       F  0.87953958  0.25483364  0.81452811    -0.16200
F3000       F  0.87652724  0.19651665  0.81405212    -0.13800
O3001       O  0.87753477  0.79937757  0.35155662    -0.84800
O3002       O  0.86913675  0.83311723  0.30375031    -0.81800
C3003       C  0.85930447  0.85342721  0.28871281     0.98700
O3004       O  0.85189851  0.87676361  0.30053396    -0.81900
O3005       O  0.80407968  0.86519409  0.33417588    -0.84500
C3006       C  0.78933579  0.85606318  0.35506687     1.03200
O3007       O  0.80126423  0.85137631  0.37911227    -0.77300
O3008       O  0.83442407  0.80362223  0.37023073    -0.77500
C3009       C  0.85384634  0.78839786  0.35913742     1.03200
O3010       O  0.91015946  0.84539002  0.37717455    -0.84800
O3011       O  0.90514277  0.87729047  0.32810124    -0.81800
C3012       C  0.90009060  0.90261375  0.33679596     0.98700
O3013       O  0.87587224  0.90897859  0.34700952    -0.81900
O3014       O  0.82589693  0.90339868  0.37777762    -0.84500
C3015       C  0.83632829  0.90058566  0.40271005     1.03200
O3016       O  0.84861480  0.87741370  0.40955157    -0.77300
O3017       O  0.87877505  0.82637530  0.40613572    -0.77400
C3018       C  0.90413312  0.83456226  0.40119558     1.03100
Cr3019     Cr  0.88797001  0.83991262  0.34138608     1.93700
Cr3020     Cr  0.84067678  0.88606351  0.34099881     1.93200
Cr3021     Cr  0.84192084  0.84088778  0.38874895     1.39100
O3022       O  0.85677814  0.85534035  0.35679971    -1.22500
O3023       O  0.86542748  0.62071000  0.30504453    -0.84800
O3024       O  0.87381139  0.65374308  0.35314872    -0.81800
C3025       C  0.84996818  0.66510900  0.35927442     0.98700
O3026       O  0.82965986  0.65012106  0.36911023    -0.81900
O3027       O  0.79625796  0.60178626  0.37725251    -0.84500
C3028       C  0.78512460  0.59576071  0.35306316     1.03200
O3029       O  0.80063379  0.58580056  0.33318227    -0.77300
O3030       O  0.84940295  0.57654977  0.30109465    -0.77500
C3031       C  0.85567665  0.60052478  0.28981193     1.03200
O3032       O  0.90208780  0.57666053  0.32869967    -0.84800
O3033       O  0.90553718  0.60771651  0.37868225    -0.81800
C3034       C  0.89883036  0.61899479  0.40232299     0.98700
O3035       O  0.87326900  0.62726386  0.40657361    -0.81900
O3036       O  0.84253568  0.57668359  0.41028466    -0.84500
C3037       C  0.83203137  0.55270177  0.40325876     1.03200
O3038       O  0.82282615  0.54898825  0.37794046    -0.77300
O3039       O  0.87379945  0.54461019  0.34810485    -0.77400
C3040       C  0.89787523  0.55134185  0.33776101     1.03100
Cr3041     Cr  0.88412957  0.61350348  0.34255542     1.93700
Cr3042     Cr  0.83657787  0.61275944  0.38835216     1.93200
Cr3043     Cr  0.83785548  0.56649094  0.34128557     1.39100
O3044       O  0.85268487  0.59780378  0.35722227    -1.22500
O3045       O  0.64933258  0.60239470  0.37476334    -0.84800
O3046       O  0.61578475  0.65059843  0.36860985    -0.81800
C3047       C  0.59624081  0.66553421  0.35721861     0.98700
O3048       O  0.57283849  0.65408934  0.34952875    -0.81900
O3049       O  0.58136695  0.61879128  0.30309722    -0.84500
C3050       C  0.58975000  0.59759241  0.28849273     1.03200
O3051       O  0.59460208  0.57384797  0.30066108    -0.77300
O3052       O  0.64512389  0.58562900  0.33079605    -0.77500
C3053       C  0.66054310  0.59597770  0.35072692     1.03200
O3054       O  0.60412342  0.57598933  0.40792500    -0.84800
O3055       O  0.57291197  0.62614185  0.40565304    -0.81800
C3056       C  0.54722469  0.61879591  0.40089618     0.98700
O3057       O  0.54022824  0.60905776  0.37666733    -0.81900
O3058       O  0.54431937  0.57568796  0.32881492    -0.84500
C3059       C  0.54853768  0.55072227  0.33898781     1.03200
O3060       O  0.57272969  0.54408338  0.34940557    -0.77300
O3061       O  0.62577270  0.55001081  0.37599552    -0.77400
C3062       C  0.61790038  0.55359728  0.40153912     1.03100
Cr3063     Cr  0.60934211  0.61258568  0.38682420     1.93700
Cr3064     Cr  0.56220780  0.61328328  0.34064845     1.93200
Cr3065     Cr  0.60823183  0.56599716  0.34034552     1.39100
O3066       O  0.59343087  0.59771350  0.35576244    -1.22500
O3067       O  0.60267957  0.80248944  0.37690392    -0.84800
O3068       O  0.65045982  0.83623589  0.36748848    -0.81800
C3069       C  0.66534104  0.85640337  0.35703018     0.98700
O3070       O  0.65385361  0.88036779  0.35066145    -0.81900
O3071       O  0.62132312  0.87273838  0.30255648    -0.84500
C3072       C  0.60292189  0.86046604  0.28698348     1.03200
O3073       O  0.57931085  0.85222616  0.29755306    -0.77300
O3074       O  0.58969368  0.80468633  0.33184478    -0.77500
C3075       C  0.59805855  0.79008411  0.35317087     1.03200
O3076       O  0.57638566  0.84932295  0.40683142    -0.84800
O3077       O  0.62724707  0.87997729  0.40375127    -0.81800
C3078       C  0.61782674  0.90517454  0.40013898     0.98700
O3079       O  0.60642368  0.91196227  0.37656652    -0.81900
O3080       O  0.57569931  0.90758395  0.32715875    -0.84500
C3081       C  0.55023290  0.90158792  0.33446880     1.03200
O3082       O  0.54443155  0.87630221  0.34248836    -0.77300
O3083       O  0.55113038  0.82678349  0.37457863    -0.77400
C3084       C  0.55394020  0.83577440  0.40007084     1.03100
Cr3085     Cr  0.61300357  0.84321288  0.38618447     1.93700
Cr3086     Cr  0.61317546  0.89057242  0.34031433     1.93200
Cr3087     Cr  0.56857058  0.84147782  0.33779945     1.39100
O3088       O  0.59843097  0.85834726  0.35443799    -1.22500
O3089       O  0.65384685  0.83655628  0.08416915    -0.84800
O3090       O  0.60719046  0.80079785  0.07433957    -0.81800
C3091       C  0.60145543  0.78862805  0.09799498     0.98700
O3092       O  0.59272465  0.80344516  0.11898279    -0.81900
O3093       O  0.58204239  0.85106574  0.15276760    -0.84500
C3094       C  0.60560737  0.85926174  0.16353977     1.03200
O3095       O  0.62429844  0.87128557  0.14804826    -0.77300
O3096       O  0.65574106  0.88125212  0.09921080    -0.77500
C3097       C  0.66809449  0.85757207  0.09389442     1.03200
O3098       O  0.62903544  0.87932513  0.04718325    -0.84800
O3099       O  0.57954994  0.84664657  0.04349571    -0.81800
C3100       C  0.55671182  0.83379438  0.05046479     0.98700
O3101       O  0.55407204  0.82472637  0.07594370    -0.81900
O3102       O  0.54690861  0.87448662  0.10762044    -0.84500
C3103       C  0.55249678  0.89935772  0.11694836     1.03200
O3104       O  0.57775213  0.90491010  0.12498614    -0.77300
O3105       O  0.60677404  0.91036034  0.07446356    -0.77400
C3106       C  0.61848852  0.90410542  0.05088277     1.03100
Cr3107     Cr  0.61627838  0.84193017  0.06477581     1.93700
Cr3108     Cr  0.57132314  0.83985805  0.11266303     1.93200
Cr3109     Cr  0.61508902  0.88934643  0.11053542     1.39100
O3110       O  0.60108105  0.85687387  0.09626514    -1.22500
O3111       O  0.83512321  0.80298711  0.08248201    -0.84800
O3112       O  0.80355204  0.85188736  0.07306628    -0.81800
C3113       C  0.79171149  0.85744541  0.09689343     0.98700
O3114       O  0.80638984  0.86606316  0.11799080    -0.81900
O3115       O  0.85390247  0.87611190  0.15214480    -0.84500
C3116       C  0.86071064  0.85265633  0.16405566     1.03200
O3117       O  0.87058458  0.83219945  0.14921559    -0.77300
O3118       O  0.87812772  0.79821566  0.10123000    -0.77500
C3119       C  0.85423648  0.78747289  0.09378606     1.03200
O3120       O  0.88042098  0.82483121  0.04694445    -0.84800
O3121       O  0.85131975  0.87662660  0.04324390    -0.81800
C3122       C  0.83950089  0.90003591  0.05003102     0.98700
O3123       O  0.82938253  0.90332658  0.07497670    -0.81900
O3124       O  0.87890627  0.90782092  0.10615072    -0.84500
C3125       C  0.90290936  0.90104204  0.11643806     1.03200
O3126       O  0.90767917  0.87554097  0.12481514    -0.77300
O3127       O  0.91195464  0.84377519  0.07574485    -0.77400
C3128       C  0.90579774  0.83307907  0.05170567     1.03100
Cr3129     Cr  0.84379455  0.84025129  0.06398614     1.93700
Cr3130     Cr  0.84337914  0.88573309  0.11169389     1.93200
Cr3131     Cr  0.88960735  0.83854571  0.11150623     1.39100
O3132       O  0.85878630  0.85457200  0.09601197    -1.22500
O3133       O  0.61716474  0.64891972  0.08579575    -0.84800
O3134       O  0.65107985  0.60098414  0.07728072    -0.81800
C3135       C  0.66259707  0.59400038  0.10099872     0.98700
O3136       O  0.64726596  0.58450994  0.12130673    -0.81900
O3137       O  0.59780955  0.57394072  0.15267060    -0.84500
C3138       C  0.59157755  0.59760096  0.16450481     1.03200
O3139       O  0.58210152  0.61820988  0.14962834    -0.77300
O3140       O  0.57311515  0.65230359  0.10198781    -0.77500
C3141       C  0.59689884  0.66391785  0.09574953     1.03200
O3142       O  0.57411280  0.62554573  0.04790614    -0.84800
O3143       O  0.60510710  0.57547752  0.04481117    -0.81800
C3144       C  0.61852415  0.55282446  0.05105447     0.98700
O3145       O  0.62654868  0.54885744  0.07656363    -0.81900
O3146       O  0.57507718  0.54217902  0.10525624    -0.84500
C3147       C  0.55108390  0.54866025  0.11605477     1.03200
O3148       O  0.54664796  0.57385737  0.12538640    -0.77300
O3149       O  0.54211012  0.60544618  0.07561269    -0.77400
C3150       C  0.54876627  0.61669472  0.05190018     1.03100
Cr3151     Cr  0.61073152  0.61157328  0.06637202     1.93700
Cr3152     Cr  0.61034654  0.56489119  0.11283913     1.93200
Cr3153     Cr  0.56345751  0.61135714  0.11199416     1.39100
O3154       O  0.59505617  0.59624921  0.09732963    -1.22500
O3155       O  0.87514918  0.65217613  0.10227939    -0.84800
O3156       O  0.86710455  0.61901827  0.15061918    -0.81800
C3157       C  0.85667515  0.59917518  0.16590580     0.98700
O3158       O  0.85008705  0.57516575  0.15478084    -0.81900
O3159       O  0.80225772  0.58287268  0.12088117    -0.84500
C3160       C  0.78717478  0.59214075  0.10035813     1.03200
O3161       O  0.79888703  0.59873932  0.07667579    -0.77300
O3162       O  0.83119208  0.64805757  0.08589096    -0.77500
C3163       C  0.85127487  0.66343710  0.09568527     1.03200
O3164       O  0.90771741  0.60585016  0.07701143    -0.84800
O3165       O  0.90433179  0.57519323  0.12755237    -0.81800
C3166       C  0.90026223  0.54963292  0.11907611     0.98700
O3167       O  0.87624351  0.54260004  0.10886055    -0.81900
O3168       O  0.82654209  0.54650964  0.07711151    -0.84500
C3169       C  0.83553696  0.55088688  0.05179362     1.03200
O3170       O  0.84610621  0.57489289  0.04517663    -0.77300
O3171       O  0.87554895  0.62580458  0.04935704    -0.77400
C3172       C  0.90091413  0.61702865  0.05328801     1.03100
Cr3173     Cr  0.88603742  0.61183722  0.11317938     1.93700
Cr3174     Cr  0.84002469  0.56434911  0.11423180     1.93200
Cr3175     Cr  0.83908265  0.61065359  0.06690657     1.39100
O3176       O  0.85482594  0.59581917  0.09838781    -1.22500
N3177       N  0.93268712  0.97557663  0.11950057    -0.36000
N3178       N  0.97761571  0.93035200  0.12111654    -0.56600
N3179       N  0.52076619  0.97434221  0.11814548    -0.36000
N3180       N  0.97588930  0.51934102  0.12166273    -0.56600
C3181       C  0.91759466  0.95175354  0.12640293     0.27600
C3182       C  0.91662075  0.49864874  0.12703238     0.27600
C3183       C  0.53624572  0.95105006  0.12652545     0.27500
C3184       C  0.53554893  0.49811955  0.12589744     0.27500
C3185       C  0.95411408  0.91609670  0.11177787     0.36200
C3186       C  0.50062442  0.91541085  0.11130724     0.36200
C3187       C  0.95255829  0.53567798  0.11539983     0.36200
C3188       C  0.49910493  0.53482455  0.11352106     0.36200
C3189       C  0.89172686  0.95971380  0.13884080    -0.21300
C3190       C  0.89110781  0.98934835  0.13922564    -0.21300
C3191       C  0.56080156  0.96049342  0.14071212    -0.21300
C3192       C  0.56045716  0.99012935  0.13997418    -0.21300
C3193       C  0.96215803  0.89255742  0.09559908    -0.22400
C3194       C  0.99145841  0.89214191  0.09504332    -0.22400
C3195       C  0.96108392  0.56143751  0.10329272    -0.22400
C3196       C  0.99035116  0.56083511  0.10197426    -0.22400
C3197       C  0.92557118  0.92340073  0.11881898    -0.17700
C3198       C  0.92377994  0.52762907  0.12102603    -0.17700
C3199       C  0.52798745  0.52658932  0.11837529    -0.17700
C3200       C  0.52940276  0.92219005  0.11864622    -0.17700
H3201       H  0.87484457  0.94569338  0.14651214     0.15200
H3202       H  0.87376298  0.50247060  0.14738775     0.15200
H3203       H  0.57737232  0.94791535  0.15095597     0.15200
H3204       H  0.57670136  0.50420408  0.14888561     0.15200
H3205       H  0.94846480  0.87789672  0.08425958     0.13500
H3206       H  0.50396469  0.87700438  0.08274826     0.13500
H3207       H  0.94788856  0.57883048  0.09575241     0.13500
H3208       H  0.50338340  0.57778967  0.09340266     0.13500
H3209       H  0.95120953  0.97587749  0.10699323     0.26700
H3210       H  0.50293655  0.97421030  0.10460611     0.26700
N3211       N  0.51819797  0.97643416  0.33641767    -0.36000
N3212       N  0.97330309  0.52126693  0.33493485    -0.56600
N3213       N  0.93010799  0.97721901  0.33520814    -0.36000
N3214       N  0.97494114  0.93233456  0.33192941    -0.56600
C3215       C  0.53262635  0.50049003  0.32883058     0.27600
C3216       C  0.53346875  0.95350419  0.32676869     0.27600
C3217       C  0.91395776  0.50056592  0.32876419     0.27500
C3218       C  0.91476892  0.95365881  0.32796747     0.27500
C3219       C  0.99655355  0.53659197  0.34329276     0.36200
C3220       C  0.94995522  0.53716189  0.34200896     0.36200
C3221       C  0.99817742  0.91717796  0.34098140     0.36200
C3222       C  0.95155855  0.91759018  0.34093387     0.36200
C3223       C  0.55699888  0.99303250  0.31358023    -0.21300
C3224       C  0.55745958  0.96343170  0.31204583    -0.21300
C3225       C  0.88820529  0.99169974  0.31671987    -0.21300
C3226       C  0.88870209  0.96206219  0.31624220    -0.21300
C3227       C  0.98787593  0.56205795  0.35596506    -0.22400
C3228       C  0.95851455  0.56247722  0.35505364    -0.22400
C3229       C  0.98926939  0.89325437  0.35642046    -0.22400
C3230       C  0.95996830  0.89349687  0.35609379    -0.22400
C3231       C  0.52530726  0.52870488  0.33737743    -0.17700
C3232       C  0.52691885  0.92437644  0.33369793    -0.17700
C3233       C  0.92277707  0.92510899  0.33473185    -0.17700
C3234       C  0.92120659  0.52927511  0.33587226    -0.17700
H3235       H  0.57280203  0.50744112  0.30442620     0.15200
H3236       H  0.57364301  0.95110774  0.30091674     0.15200
H3237       H  0.87067199  0.50509946  0.30938623     0.15200
H3238       H  0.87157762  0.94834492  0.30856437     0.15200
H3239       H  0.50107242  0.57862461  0.36507133     0.13500
H3240       H  0.94526903  0.57942492  0.36337168     0.13500
H3241       H  0.50193905  0.87773341  0.36808598     0.13500
H3242       H  0.94656263  0.87832374  0.36701419     0.13500
H3243       H  0.00079318  0.97574673  0.35047345     0.26700
H3244       H  0.94885270  0.97708966  0.34738268     0.26700
N3245       N  0.62161650  0.97920312  0.43183687    -0.36000
N3246       N  0.62298519  0.93437964  0.47572963    -0.56600
N3247       N  0.62150852  0.97863366  0.02006992    -0.36000
N3248       N  0.62490397  0.52289749  0.47611442    -0.56600
C3249       C  0.62780378  0.95553306  0.41604627     0.27600
C3250       C  0.62906282  0.50243183  0.41592233     0.27600
C3251       C  0.62732844  0.95480759  0.03579546     0.27500
C3252       C  0.62872615  0.50168643  0.03633420     0.27500
C3253       C  0.61560678  0.91866542  0.45234764     0.36200
C3254       C  0.61576238  0.91833744  0.99891742     0.36200
C3255       C  0.62567082  0.54052258  0.45297291     0.36200
C3256       C  0.62585897  0.54024094  0.99945648     0.36200
C3257       C  0.63997540  0.96368166  0.39015955    -0.21300
C3258       C  0.64077756  0.99320391  0.39001742    -0.21300
C3259       C  0.63882979  0.96267511  0.06206347    -0.21300
C3260       C  0.63974233  0.99212851  0.06246170    -0.21300
C3261       C  0.60369512  0.89277219  0.46082017    -0.22400
C3262       C  0.60380548  0.89255044  0.49018745    -0.22400
C3263       C  0.62940951  0.56879841  0.46169189    -0.22400
C3264       C  0.62956230  0.56861658  0.49094519    -0.22400
C3265       C  0.62060350  0.92697932  0.42352925    -0.17700
C3266       C  0.62438800  0.53150983  0.42398123    -0.17700
C3267       C  0.62455579  0.53089551  0.02839931    -0.17700
C3268       C  0.62067615  0.92628116  0.02781572    -0.17700
H3269       H  0.64763196  0.94981110  0.37311237     0.15200
H3270       H  0.65001497  0.50592258  0.37293421     0.15200
H3271       H  0.64617013  0.94868205  0.07916355     0.12800
H3272       H  0.64884744  0.50447944  0.07986947     0.15200
H3273       H  0.59546401  0.87582156  0.44746345     0.13500
H3274       H  0.59556409  0.87553765  0.00340669     0.13500
H3275       H  0.63315704  0.58767529  0.44861407     0.13500
H3276       H  0.63349299  0.58737869  0.00414863     0.13500
H3277       H  0.60955903  0.97953510  0.45067088     0.26700
H3278       H  0.60998564  0.97917832  0.00090907     0.26700
N3279       N  0.92951358  0.62431853  0.47754192    -0.36000
N3280       N  0.97456021  0.62078359  0.02102094    -0.56600
N3281       N  0.51836039  0.62379350  0.47664292    -0.36000
N3282       N  0.97324507  0.62284524  0.43297250    -0.56600
C3283       C  0.91483259  0.61533994  0.00103633     0.27600
C3284       C  0.91407418  0.61643757  0.45411572     0.27600
C3285       C  0.53353191  0.61468597  0.99982224     0.27500
C3286       C  0.53277612  0.61520248  0.45285119     0.27500
C3287       C  0.95152576  0.62655067  0.03774051     0.36200
C3288       C  0.49797843  0.62665252  0.03719220     0.36200
C3289       C  0.94980806  0.62889723  0.41685712     0.36200
C3290       C  0.49638830  0.62840442  0.41630256     0.36200
C3291       C  0.89002550  0.60149347  0.49234789    -0.21300
C3292       C  0.88954601  0.60215675  0.46289625    -0.21300
C3293       C  0.55762250  0.59998087  0.49066210    -0.21300
C3294       C  0.55710275  0.60020482  0.46112604    -0.21300
C3295       C  0.96035788  0.63667346  0.06433860    -0.22400
C3296       C  0.98976493  0.63681032  0.06396231    -0.22400
C3297       C  0.95812147  0.63895809  0.39005508    -0.22400
C3298       C  0.98757106  0.63866480  0.38969653    -0.22400
C3299       C  0.92287629  0.62021584  0.03004835    -0.17700
C3300       C  0.92126932  0.62242017  0.42512692    -0.17700
C3301       C  0.52502372  0.62152392  0.42400364    -0.17700
C3302       C  0.52641197  0.62006227  0.02896399    -0.17700
H3303       H  0.87400776  0.59149108  0.00555689     0.15200
H3304       H  0.87316410  0.59264163  0.44966895     0.15200
H3305       H  0.57354907  0.58951008  0.00377323     0.15200
H3306       H  0.57257819  0.58987219  0.44745133     0.15200
H3307       H  0.94708315  0.64315222  0.08227952     0.13500
H3308       H  0.50345727  0.64334525  0.08157679     0.13500
H3309       H  0.94447208  0.64550866  0.37240346     0.13500
H3310       H  0.50082708  0.64505493  0.37171022     0.13500
H3311       H  0.94774898  0.63744588  0.47757850     0.26700
H3312       H  0.50053022  0.63746679  0.47703338     0.26700
N3313       N  0.83525299  0.93213968  0.47643360    -0.36000
N3314       N  0.83038373  0.97638365  0.43240582    -0.56600
N3315       N  0.83302684  0.52021023  0.47710806    -0.36000
N3316       N  0.83303578  0.97565381  0.02119729    -0.56600
C3317       C  0.82807397  0.91625840  0.45317836     0.27600
C3318       C  0.82973751  0.91583847  0.99987600     0.27600
C3319       C  0.82493053  0.53603294  0.45401884     0.27500
C3320       C  0.82643269  0.53563585  0.00094440     0.27500
C3321       C  0.83704942  0.95322945  0.41593826     0.36200
C3322       C  0.83565435  0.50003635  0.41614772     0.36200
C3323       C  0.84059016  0.95235990  0.03699867     0.36200
C3324       C  0.83916247  0.49898748  0.03751646     0.36200
C3325       C  0.81735225  0.88981866  0.46195277    -0.21300
C3326       C  0.81844373  0.88953205  0.49144035    -0.21300
C3327       C  0.81264977  0.56159163  0.46330244    -0.21300
C3328       C  0.81365527  0.56136416  0.49287385    -0.21300
C3329       C  0.84651932  0.96227530  0.38926476    -0.22400
C3330       C  0.84559419  0.99168416  0.38937638    -0.22400
C3331       C  0.85140263  0.96102279  0.06329457    -0.22400
C3332       C  0.85052004  0.99036174  0.06361740    -0.22400
C3333       C  0.83348085  0.92410697  0.42436937    -0.17700
C3334       C  0.83661249  0.92342466  0.02841217    -0.17700
C3335       C  0.83349168  0.52782625  0.02954758    -0.17700
C3336       C  0.83048995  0.52887121  0.42492325    -0.17700
H3337       H  0.80977061  0.87237286  0.44853487     0.15200
H3338       H  0.81185000  0.87182988  0.00505488     0.15200
H3339       H  0.80395938  0.57874199  0.45017400     0.15200
H3340       H  0.80586691  0.57830447  0.00681745     0.15200
H3341       H  0.85333087  0.94935429  0.37134942     0.13500
H3342       H  0.85152453  0.50497183  0.37147590     0.13500
H3343       H  0.85932253  0.94791385  0.08057273     0.13500
H3344       H  0.85771795  0.50348467  0.08117877     0.13500
H3345       H  0.84678373  0.95131678  0.47619539     0.26700
H3346       H  0.84558188  0.50170162  0.47656089     0.26700
N3347       N  0.93581208  0.82815352  0.47612494    -0.36000
N3348       N  0.97914671  0.83028250  0.43106151    -0.56600
N3349       N  0.52367916  0.83174364  0.47559390    -0.36000
N3350       N  0.98064319  0.82932288  0.02071298    -0.56600
C3351       C  0.92012662  0.83643571  0.45289243     0.27600
C3352       C  0.92079496  0.83597237  0.99987142     0.27600
C3353       C  0.54017175  0.82846656  0.45169518     0.27500
C3354       C  0.54105168  0.82819883  0.99887528     0.27500
C3355       C  0.95552809  0.82559703  0.41477946     0.36200
C3356       C  0.50213769  0.82640937  0.41373086     0.36200
C3357       C  0.95721993  0.82475395  0.03734640     0.36200
C3358       C  0.50401067  0.82596684  0.03776761     0.36200
C3359       C  0.89536708  0.84997350  0.46206314    -0.21300
C3360       C  0.89580291  0.84969089  0.49144116    -0.21300
C3361       C  0.56796567  0.82188426  0.46003840    -0.21300
C3362       C  0.56852674  0.82173398  0.48943722    -0.21300
C3363       C  0.96348382  0.81755101  0.38730351    -0.22400
C3364       C  0.99276349  0.81835747  0.38646839    -0.22400
C3365       C  0.96572126  0.81723843  0.06483604    -0.22400
C3366       C  0.99502453  0.81842603  0.06531430    -0.22400
C3367       C  0.92708206  0.83136711  0.42364592    -0.17700
C3368       C  0.92847980  0.83035891  0.02890835    -0.17700
C3369       C  0.53307373  0.82943445  0.02853845    -0.17700
C3370       C  0.53120145  0.83028010  0.42237462    -0.17700
H3371       H  0.87876440  0.85959190  0.44915962     0.15200
H3372       H  0.87953114  0.85897035  0.00480121     0.15200
H3373       H  0.58597368  0.81631752  0.44648046     0.15200
H3374       H  0.58704913  0.81598128  0.00217797     0.15200
H3375       H  0.94978590  0.81163353  0.36948348     0.13500
H3376       H  0.50491963  0.81244177  0.36767066     0.13500
H3377       H  0.95239200  0.81155600  0.08299734     0.13500
H3378       H  0.50740302  0.81321423  0.08415014     0.13500
H3379       H  0.95426880  0.81550919  0.47583456     0.26700
H3380       H  0.50248406  0.83848525  0.47588869     0.26700
C3381       C  0.70970937  0.57842746  0.12350543     0.24200
C3382       C  0.69444529  0.59550186  0.10358041    -0.23900
C3383       C  0.71014670  0.61263276  0.08416226     0.19100
C3384       C  0.74006170  0.61208879  0.08392013     0.24100
C3385       C  0.75541001  0.59435864  0.10303814    -0.23900
C3386       C  0.73989187  0.57792597  0.12328784     0.19000
F3387       F  0.75379440  0.56041190  0.14207707    -0.13800
F3388       F  0.69553120  0.56115428  0.14229877    -0.16200
F3389       F  0.75400454  0.62906162  0.06468544    -0.16200
F3390       F  0.69656257  0.62993194  0.06495810    -0.13800
C3391       C  0.83159418  0.74086244  0.07804794     0.24200
C3392       C  0.84965429  0.75606297  0.09701665    -0.23900
C3393       C  0.86520412  0.74059908  0.11782063     0.19100
C3394       C  0.86458448  0.71053984  0.11819243     0.24100
C3395       C  0.84809188  0.69516323  0.09799486    -0.23900
C3396       C  0.83083039  0.71067417  0.07852016     0.19000
F3397       F  0.81471674  0.69669774  0.05860752    -0.13800
F3398       F  0.81602164  0.75506217  0.05783744    -0.16200
F3399       F  0.88065167  0.69645001  0.13807824    -0.16200
F3400       F  0.88143021  0.75459862  0.13764908    -0.13800
C3401       C  0.58439907  0.71128913  0.11900279     0.24200
C3402       C  0.60028396  0.69560351  0.09854076    -0.23900
C3403       C  0.61825337  0.71071405  0.07950251     0.19100
C3404       C  0.61964534  0.74080812  0.08024328     0.24100
C3405       C  0.60290446  0.75665122  0.09992320    -0.23900
C3406       C  0.58550830  0.74146779  0.11953271     0.19000
F3407       F  0.56831458  0.75581610  0.13823033    -0.13800
F3408       F  0.56755339  0.69744246  0.13840385    -0.16200
F3409       F  0.63697423  0.75443449  0.06112595    -0.16200
F3410       F  0.63345353  0.69645273  0.05907523    -0.13800
C3411       C  0.74537043  0.83431505  0.08342253     0.24200
C3412       C  0.76026459  0.85548739  0.09900002    -0.23900
C3413       C  0.74474470  0.87594445  0.11482946     0.19100
C3414       C  0.71475817  0.87598974  0.11408906     0.24100
C3415       C  0.69969540  0.85544853  0.09751490    -0.23900
C3416       C  0.71541200  0.83399177  0.08305082     0.19000
F3417       F  0.70191538  0.81316490  0.06769457    -0.13800
F3418       F  0.75987823  0.81397604  0.06830753    -0.16200
F3419       F  0.70056544  0.89634674  0.12946541    -0.16200
F3420       F  0.75860647  0.89683090  0.12984006    -0.13800
C3421       C  0.62689103  0.87576557  0.21052277     0.24200
C3422       C  0.60999252  0.85605983  0.19496510    -0.23900
C3423       C  0.59481313  0.83473090  0.21015087     0.19100
C3424       C  0.59350088  0.83538637  0.24016388     0.24100
C3425       C  0.60818037  0.85681460  0.25570949    -0.23900
C3426       C  0.62639679  0.87578083  0.24066635     0.19000
F3427       F  0.64240159  0.89555409  0.25497293    -0.13800
F3428       F  0.64234103  0.89630687  0.19668637    -0.16200
F3429       F  0.57744458  0.81527598  0.25396567    -0.16200
F3430       F  0.58059354  0.81358513  0.19586788    -0.13800
C3431       C  0.60607007  0.57705218  0.24167662     0.24200
C3432       C  0.59267158  0.59953090  0.25690746    -0.23900
C3433       C  0.58112068  0.62288110  0.24146658     0.19100
C3434       C  0.58189674  0.62313616  0.21137931     0.24100
C3435       C  0.59391290  0.59983009  0.19618500    -0.23900
C3436       C  0.60671844  0.57722555  0.21180800     0.19000
F3437       F  0.61950637  0.55469950  0.19829162    -0.13800
F3438       F  0.61818874  0.55434735  0.25554180    -0.16200
F3439       F  0.56995497  0.64573832  0.19726342    -0.16200
F3440       F  0.56794710  0.64492585  0.25534776    -0.13800
C3441       C  0.61432071  0.71299848  0.37522259     0.24200
C3442       C  0.59989522  0.69708665  0.35400725    -0.23900
C3443       C  0.58705296  0.71186834  0.33090893     0.19100
C3444       C  0.58749499  0.74205319  0.32972286     0.24100
C3445       C  0.60075098  0.75812371  0.35174914    -0.23900
C3446       C  0.61463358  0.74308089  0.37421847     0.19000
F3447       F  0.62768418  0.75743726  0.39604319    -0.13800
F3448       F  0.62661786  0.69955139  0.39804716    -0.16200
F3449       F  0.57354872  0.75542612  0.30784343    -0.16200
F3450       F  0.57360597  0.69704267  0.30965391    -0.13800
C3451       C  0.83304817  0.58710474  0.21285338     0.24200
C3452       C  0.85356542  0.60312107  0.19743760    -0.23900
C3453       C  0.87232317  0.62130682  0.21275975     0.19100
C3454       C  0.87199636  0.62175224  0.24288974     0.24100
C3455       C  0.85306078  0.60386490  0.25825387    -0.23900
C3456       C  0.83293035  0.58732114  0.24291876     0.19000
F3457       F  0.81323318  0.57107768  0.25706920    -0.13800
F3458       F  0.81311159  0.57107294  0.19882286    -0.16200
F3459       F  0.89139020  0.63839974  0.25696702    -0.16200
F3460       F  0.89210634  0.63748941  0.19870839    -0.13800
C3461       C  0.73746718  0.61491114  0.36932057     0.24200
C3462       C  0.75342096  0.59901251  0.34913948    -0.23900
C3463       C  0.73840816  0.58513752  0.32663669     0.19100
C3464       C  0.70815951  0.58497548  0.32608759     0.24100
C3465       C  0.69232480  0.59919548  0.34770376    -0.23900
C3466       C  0.70755854  0.61509967  0.36855454     0.19000
F3467       F  0.69353183  0.63054692  0.38896955    -0.13800
F3468       F  0.75075313  0.63019311  0.39034681    -0.16200
F3469       F  0.69453924  0.56984445  0.30516356    -0.16200
F3470       F  0.75286089  0.57078935  0.30573968    -0.13800
C3471       C  0.87529789  0.83144141  0.24177531     0.24200
C3472       C  0.85768233  0.85093045  0.25686414    -0.23900
C3473       C  0.83979543  0.86954824  0.24102145     0.19100
C3474       C  0.83990682  0.86908251  0.21097958     0.24100
C3475       C  0.85825009  0.85033248  0.19584462    -0.23900
C3476       C  0.87565135  0.83121909  0.21160620     0.19000
F3477       F  0.89417290  0.81332364  0.19791724    -0.13800
F3478       F  0.89340246  0.81362275  0.25613313    -0.16200
F3479       F  0.82210727  0.88731625  0.19671262    -0.16200
F3480       F  0.82228195  0.88858892  0.25454532    -0.13800
C3481       C  0.74191012  0.86800228  0.33167727     0.24200
C3482       C  0.75764721  0.85272968  0.35259326    -0.23900
C3483       C  0.74248518  0.83598058  0.37284463     0.19100
C3484       C  0.71246446  0.83576564  0.37316467     0.24100
C3485       C  0.69682717  0.85289644  0.35375504    -0.23900
C3486       C  0.71184543  0.86831623  0.33246694     0.19000
F3487       F  0.69739128  0.88409088  0.31259222    -0.13800
F3488       F  0.75551000  0.88388941  0.31131467    -0.16200
F3489       F  0.69879801  0.82004483  0.39362503    -0.16200
F3490       F  0.75668758  0.82032403  0.39299282    -0.13800
C3491       C  0.83164412  0.71238340  0.37702448     0.24200
C3492       C  0.84710760  0.69655144  0.35649856    -0.23900
C3493       C  0.86246244  0.71126958  0.33498453     0.19100
C3494       C  0.86391215  0.74128396  0.33515749     0.24100
C3495       C  0.84961953  0.75707680  0.35660185    -0.23900
C3496       C  0.83264639  0.74241002  0.37688643     0.19000
F3497       F  0.81843758  0.75702765  0.39777165    -0.13800
F3498       F  0.81719651  0.69885295  0.39846912    -0.16200
F3499       F  0.87943942  0.75485047  0.31447705    -0.16200
F3500       F  0.87642332  0.69652829  0.31399908    -0.13800
O3501       O  0.87754230  0.79937305  0.85155860    -0.84800
O3502       O  0.86917176  0.83311880  0.80374788    -0.81800
C3503       C  0.85932855  0.85342805  0.78871592     0.98700
O3504       O  0.85189825  0.87675350  0.80054404    -0.81900
O3505       O  0.80408715  0.86519463  0.83420051    -0.84500
C3506       C  0.78934846  0.85606782  0.85509669     1.03200
O3507       O  0.80128398  0.85138690  0.87913883    -0.77300
O3508       O  0.83442512  0.80361863  0.87021802    -0.77500
C3509       C  0.85384817  0.78839266  0.85912523     1.03200
O3510       O  0.91016003  0.84539992  0.87718718    -0.84800
O3511       O  0.90516598  0.87728524  0.82811511    -0.81800
C3512       C  0.90010812  0.90260851  0.83680384     0.98700
O3513       O  0.87588611  0.90897366  0.84700645    -0.81900
O3514       O  0.82593503  0.90339720  0.87779623    -0.84500
C3515       C  0.83638304  0.90057860  0.90272128     1.03200
O3516       O  0.84866138  0.87739879  0.90955455    -0.77300
O3517       O  0.87878793  0.82633411  0.90612211    -0.77400
C3518       C  0.90413978  0.83454516  0.90119621     1.03100
Cr3519     Cr  0.88798672  0.83991058  0.84139296     1.93700
Cr3520     Cr  0.84068980  0.88605931  0.84100923     1.93200
Cr3521     Cr  0.84193935  0.84087639  0.88875071     1.39100
O3522       O  0.85679137  0.85533328  0.85680145    -1.22500
O3523       O  0.86540861  0.62068975  0.80504264    -0.84800
O3524       O  0.87380369  0.65372566  0.85314476    -0.81800
C3525       C  0.84995858  0.66509372  0.85926088     0.98700
O3526       O  0.82964985  0.65010456  0.86909522    -0.81900
O3527       O  0.79626527  0.60176082  0.87727545    -0.84500
C3528       C  0.78512668  0.59572874  0.85309129     1.03200
O3529       O  0.80062927  0.58576202  0.83320957    -0.77300
O3530       O  0.84937870  0.57652989  0.80109781    -0.77500
C3531       C  0.85565010  0.60050517  0.78981359     1.03200
O3532       O  0.90208540  0.57664903  0.82868041    -0.84800
O3533       O  0.90553611  0.60770003  0.87867064    -0.81800
C3534       C  0.89883237  0.61899325  0.90230546     0.98700
O3535       O  0.87327495  0.62727456  0.90655044    -0.81900
O3536       O  0.84256016  0.57668159  0.91029350    -0.84500
C3537       C  0.83206784  0.55269108  0.90327728     1.03200
O3538       O  0.82285980  0.54896298  0.87796200    -0.77300
O3539       O  0.87381062  0.54459265  0.84809225    -0.77400
C3540       C  0.89788082  0.55132879  0.83774002     1.03100
Cr3541     Cr  0.88412363  0.61348699  0.84254658     1.93700
Cr3542     Cr  0.83658422  0.61274980  0.88835067     1.93200
Cr3543     Cr  0.83785878  0.56646580  0.84129518     1.39100
O3544       O  0.85268551  0.59778517  0.85722157    -1.22500
O3545       O  0.64933884  0.60241531  0.87477878    -0.84800
O3546       O  0.61578523  0.65061230  0.86859928    -0.81800
C3547       C  0.59624641  0.66554584  0.85719494     0.98700
O3548       O  0.57284606  0.65409667  0.84950564    -0.81900
O3549       O  0.58139341  0.61878252  0.80309036    -0.84500
C3550       C  0.58977784  0.59757759  0.78849590     1.03200
O3551       O  0.59462415  0.57383928  0.80067602    -0.77300
O3552       O  0.64513629  0.58563125  0.83081766    -0.77500
C3553       C  0.66055220  0.59598427  0.85074859     1.03200
O3554       O  0.60414355  0.57600621  0.90794312    -0.84800
O3555       O  0.57291208  0.62615189  0.90564748    -0.81800
C3556       C  0.54722765  0.61880041  0.90088511     0.98700
O3557       O  0.54023535  0.60906791  0.87665255    -0.81900
O3558       O  0.54433682  0.57568523  0.82881015    -0.84500
C3559       C  0.54855240  0.55071977  0.83898520     1.03200
O3560       O  0.57274169  0.54408161  0.84941080    -0.77300
O3561       O  0.62578100  0.55002069  0.87601133    -0.77400
C3562       C  0.61791685  0.55361076  0.90155561     1.03100
Cr3563     Cr  0.60934729  0.61260132  0.88682784     1.93700
Cr3564     Cr  0.56222265  0.61328473  0.84063809     1.93200
Cr3565     Cr  0.60824511  0.56599889  0.84036027     1.39100
O3566       O  0.59344052  0.59771769  0.85576776    -1.22500
O3567       O  0.60269121  0.80249511  0.87689607    -0.84800
O3568       O  0.65047481  0.83623646  0.86750308    -0.81800
C3569       C  0.66535990  0.85639790  0.85704045     0.98700
O3570       O  0.65388028  0.88036243  0.85065566    -0.81900
O3571       O  0.62134622  0.87275821  0.80255466    -0.84500
C3572       C  0.60295092  0.86047828  0.78698164     1.03200
O3573       O  0.57933604  0.85224570  0.79754762    -0.77300
O3574       O  0.58972508  0.80470993  0.83183160    -0.77500
C3575       C  0.59808332  0.79009972  0.85315374     1.03200
O3576       O  0.57639805  0.84934776  0.90682219    -0.84800
O3577       O  0.62727089  0.87997988  0.90375979    -0.81800
C3578       C  0.61787445  0.90518545  0.90014187     0.98700
O3579       O  0.60647294  0.91197824  0.87657044    -0.81900
O3580       O  0.57572372  0.90760611  0.82717816    -0.84500
C3581       C  0.55025449  0.90160032  0.83447627     1.03200
O3582       O  0.54445370  0.87631181  0.84248522    -0.77300
O3583       O  0.55115398  0.82679434  0.87457267    -0.77400
C3584       C  0.55395310  0.83580011  0.90006133     1.03100
Cr3585     Cr  0.61301831  0.84322159  0.88618607     1.93700
Cr3586     Cr  0.61320523  0.89058631  0.84031673     1.93200
Cr3587     Cr  0.56859652  0.84149390  0.83779376     1.39100
O3588       O  0.59845556  0.85836208  0.85443730    -1.22500
O3589       O  0.65386724  0.83656864  0.58418590    -0.84800
O3590       O  0.60721335  0.80079419  0.57434637    -0.81800
C3591       C  0.60148116  0.78861804  0.59799948     0.98700
O3592       O  0.59274864  0.80343096  0.61898833    -0.81900
O3593       O  0.58208138  0.85103797  0.65278264    -0.84500
C3594       C  0.60564975  0.85923763  0.66354635     1.03200
O3595       O  0.62432720  0.87127988  0.64805148    -0.77300
O3596       O  0.65574705  0.88127185  0.59920324    -0.77500
C3597       C  0.66810970  0.85759354  0.59390218     1.03200
O3598       O  0.62903992  0.87933180  0.54719910    -0.84800
O3599       O  0.57956320  0.84663958  0.54350739    -0.81800
C3600       C  0.55672111  0.83379375  0.55047697     0.98700
O3601       O  0.55408017  0.82472412  0.57595638    -0.81900
O3602       O  0.54692171  0.87446897  0.60765139    -0.84500
C3603       C  0.55250817  0.89934100  0.61697744     1.03200
O3604       O  0.57776184  0.90489460  0.62501793    -0.77300
O3605       O  0.60675018  0.91035048  0.57447384    -0.77400
C3606       C  0.61846509  0.90410128  0.55089109     1.03100
Cr3607     Cr  0.61629463  0.84193037  0.56478828     1.93700
Cr3608     Cr  0.57134304  0.83984291  0.61267905     1.93200
Cr3609     Cr  0.61509484  0.88934406  0.61054510     1.39100
O3610       O  0.60109439  0.85686703  0.59627833    -1.22500
O3611       O  0.83514054  0.80298381  0.58251445    -0.84800
O3612       O  0.80356301  0.85188547  0.57309266    -0.81800
C3613       C  0.79172998  0.85746679  0.59691795     0.98700
O3614       O  0.80641461  0.86609370  0.61800697    -0.81900
O3615       O  0.85394649  0.87613657  0.65213810    -0.84500
C3616       C  0.86075029  0.85268183  0.66405374     1.03200
O3617       O  0.87061301  0.83221765  0.64921600    -0.77300
O3618       O  0.87815372  0.79822064  0.60123736    -0.77500
C3619       C  0.85425850  0.78747225  0.59381640     1.03200
O3620       O  0.88042314  0.82483217  0.54694354    -0.84800
O3621       O  0.85130628  0.87661701  0.54323237    -0.81800
C3622       C  0.83950273  0.90003478  0.55001921     0.98700
O3623       O  0.82940158  0.90333703  0.57497074    -0.81900
O3624       O  0.87893574  0.90782521  0.60612497    -0.84500
C3625       C  0.90293635  0.90104552  0.61641548     1.03200
O3626       O  0.90770336  0.87554777  0.62480067    -0.77300
O3627       O  0.91196254  0.84378233  0.57573651    -0.77400
C3628       C  0.90579961  0.83308537  0.55169955     1.03100
Cr3629     Cr  0.84379952  0.84024690  0.56399725     1.93700
Cr3630     Cr  0.84340772  0.88574907  0.61168844     1.93200
Cr3631     Cr  0.88962807  0.83855458  0.61150225     1.39100
O3632       O  0.85880383  0.85457948  0.59601162    -1.22500
O3633       O  0.61718985  0.64890904  0.58578658    -0.84800
O3634       O  0.65108411  0.60096694  0.57725318    -0.81800
C3635       C  0.66260748  0.59399983  0.60097237     0.98700
O3636       O  0.64728086  0.58451527  0.62128665    -0.81900
O3637       O  0.59783428  0.57392214  0.65265757    -0.84500
C3638       C  0.59160462  0.59757477  0.66450489     1.03200
O3639       O  0.58212895  0.61819029  0.64963952    -0.77300
O3640       O  0.57315454  0.65230514  0.60202305    -0.77500
C3641       C  0.59693888  0.66390966  0.59576716     1.03200
O3642       O  0.57412070  0.62555887  0.54791252    -0.84800
O3643       O  0.60508621  0.57547342  0.54480549    -0.81800
C3644       C  0.61850845  0.55282166  0.55104129     0.98700
O3645       O  0.62655720  0.54886246  0.57654351    -0.81900
O3646       O  0.57509418  0.54216771  0.60525449    -0.84500
C3647       C  0.55109811  0.54865002  0.61604805     1.03200
O3648       O  0.54665825  0.57384962  0.62537570    -0.77300
O3649       O  0.54211465  0.60547727  0.57562735    -0.77400
C3650       C  0.54877178  0.61672133  0.55191284     1.03100
Cr3651     Cr  0.61073534  0.61156777  0.56636336     1.93700
Cr3652     Cr  0.61036348  0.56488670  0.61282592     1.93200
Cr3653     Cr  0.56347687  0.61135758  0.61200576     1.39100
O3654       O  0.59506670  0.59624577  0.59732567    -1.22500
O3655       O  0.87516383  0.65215910  0.60229319    -0.84800
O3656       O  0.86710816  0.61899847  0.65062627    -0.81800
C3657       C  0.85666253  0.59916031  0.66590811     0.98700
O3658       O  0.85007114  0.57515318  0.65478007    -0.81900
O3659       O  0.80226093  0.58286151  0.62085840    -0.84500
C3660       C  0.78718595  0.59213624  0.60033260     1.03200
O3661       O  0.79890656  0.59873303  0.57665602    -0.77300
O3662       O  0.83120870  0.64804831  0.58590486    -0.77500
C3663       C  0.85128838  0.66342458  0.59571250     1.03200
O3664       O  0.90773368  0.60583634  0.57702457    -0.84800
O3665       O  0.90434338  0.57517869  0.62755969    -0.81800
C3666       C  0.90027369  0.54961909  0.61908412     0.98700
O3667       O  0.87625183  0.54258240  0.60887701    -0.81900
O3668       O  0.82656931  0.54648865  0.57709724    -0.84500
C3669       C  0.83555952  0.55087720  0.55177844     1.03200
O3670       O  0.84612032  0.57488909  0.54516757    -0.77300
O3671       O  0.87557070  0.62579563  0.54936749    -0.77400
C3672       C  0.90093325  0.61701459  0.55330046     1.03100
Cr3673     Cr  0.88604783  0.61181990  0.61318875     1.93700
Cr3674     Cr  0.84003019  0.56433354  0.61422653     1.93200
Cr3675     Cr  0.83910158  0.61064644  0.56690692     1.39100
O3676       O  0.85483912  0.59580276  0.59838785    -1.22500
N3677       N  0.93270995  0.97557046  0.61948703    -0.36000
N3678       N  0.97763455  0.93034181  0.62111848    -0.56600
N3679       N  0.52078473  0.97432598  0.61813592    -0.36000
N3680       N  0.97590382  0.51933247  0.62165880    -0.56600
C3681       C  0.91762255  0.95174760  0.62639553     0.27600
C3682       C  0.91664235  0.49864008  0.62703272     0.27600
C3683       C  0.53625296  0.95103517  0.62654146     0.27500
C3684       C  0.53555129  0.49810792  0.62589672     0.27500
C3685       C  0.95413672  0.91609838  0.61175565     0.36200
C3686       C  0.50064314  0.91539815  0.61130252     0.36200
C3687       C  0.95257269  0.53566745  0.61539094     0.36200
C3688       C  0.49911851  0.53481236  0.61349531     0.36200
C3689       C  0.89176317  0.95970362  0.63885329    -0.21300
C3690       C  0.89114494  0.98933812  0.63924617    -0.21300
C3691       C  0.56079626  0.96048067  0.64074729    -0.21300
C3692       C  0.56045838  0.99011750  0.63999262    -0.21300
C3693       C  0.96218312  0.89256936  0.59556256    -0.22400
C3694       C  0.99148450  0.89214803  0.59502453    -0.22400
C3695       C  0.96109845  0.56142136  0.60327256    -0.22400
C3696       C  0.99036684  0.56081771  0.60195357    -0.22400
C3697       C  0.92559585  0.92340013  0.61879783    -0.17700
C3698       C  0.92379546  0.52761972  0.62102573    -0.17700
C3699       C  0.52799920  0.52657820  0.61836217    -0.17700
C3700       C  0.52941507  0.92217370  0.61866386    -0.17700
H3701       H  0.87488652  0.94568010  0.64653165     0.15200
H3702       H  0.87379953  0.50245512  0.64742064     0.15200
H3703       H  0.57735425  0.94790133  0.65101108     0.15200
H3704       H  0.57667499  0.50419121  0.64893499     0.15200
H3705       H  0.94849092  0.87791968  0.58420524     0.13500
H3706       H  0.50400108  0.87700941  0.58272301     0.13500
H3707       H  0.94790224  0.57881060  0.59572650     0.13500
H3708       H  0.50339931  0.57777163  0.59336596     0.13500
H3709       H  0.95122307  0.97587266  0.60696496     0.26700
H3710       H  0.50296604  0.97419012  0.60458190     0.26700
N3711       N  0.51821066  0.97643315  0.83642918    -0.36000
N3712       N  0.97331281  0.52125943  0.83492056    -0.56600
N3713       N  0.93011721  0.97721433  0.83521237    -0.36000
N3714       N  0.97495183  0.93232915  0.83193893    -0.56600
C3715       C  0.53263468  0.50048860  0.82882674     0.27600
C3716       C  0.53347545  0.95350559  0.82676764     0.27600
C3717       C  0.91397167  0.50055448  0.82874885     0.27500
C3718       C  0.91478394  0.95365179  0.82796819     0.27500
C3719       C  0.99656134  0.53658778  0.84327803     0.36200
C3720       C  0.94996368  0.53715769  0.84198275     0.36200
C3721       C  0.99818959  0.91718038  0.84099832     0.36200
C3722       C  0.95157141  0.91759337  0.84096077     0.36200
C3723       C  0.55699409  0.99303309  0.81356216    -0.21300
C3724       C  0.55745354  0.96343254  0.81202487    -0.21300
C3725       C  0.88822423  0.99168878  0.81669699    -0.21300
C3726       C  0.88872307  0.96205074  0.81622614    -0.21300
C3727       C  0.98788097  0.56205891  0.85593748    -0.22400
C3728       C  0.95852018  0.56247879  0.85501768    -0.22400
C3729       C  0.98928652  0.89327129  0.85646163    -0.22400
C3730       C  0.95998342  0.89351434  0.85614352    -0.22400
C3731       C  0.52531958  0.52870418  0.83737238    -0.17700
C3732       C  0.52693406  0.92438052  0.83370455    -0.17700
C3733       C  0.92279164  0.92510510  0.83474516    -0.17700
C3734       C  0.92121640  0.52926671  0.83584725    -0.17700
H3735       H  0.57279670  0.50743531  0.80439934     0.15200
H3736       H  0.57362672  0.95110666  0.80088241     0.15200
H3737       H  0.87069438  0.50507885  0.80935143     0.15200
H3738       H  0.87160382  0.94833031  0.80854217     0.15200
H3739       H  0.50108278  0.57863922  0.86503643     0.13500
H3740       H  0.94527338  0.57943175  0.86332299     0.13500
H3741       H  0.50196652  0.87774711  0.86811010     0.13500
H3742       H  0.94657744  0.87835301  0.86708198     0.13500
H3743       H  0.00080544  0.97573982  0.85049124     0.26700
H3744       H  0.94885473  0.97708787  0.84739834     0.26700
N3745       N  0.62167830  0.97921096  0.93184605    -0.36000
N3746       N  0.62307963  0.93437691  0.97572986    -0.56600
N3747       N  0.62144848  0.97862954  0.52006665    -0.36000
N3748       N  0.62493971  0.52290561  0.97612716    -0.56600
C3749       C  0.62786599  0.95554509  0.91604901     0.27600
C3750       C  0.62909868  0.50244240  0.91592855     0.27600
C3751       C  0.62726905  0.95480435  0.53579408     0.27500
C3752       C  0.62868355  0.50167814  0.53632485     0.27500
C3753       C  0.61566783  0.91867964  0.95234725     0.36200
C3754       C  0.61571442  0.91832271  0.49892011     0.36200
C3755       C  0.62570518  0.54053099  0.95298589     0.36200
C3756       C  0.62582406  0.54023316  0.49944330     0.36200
C3757       C  0.64001715  0.96370146  0.89015559    -0.21300
C3758       C  0.64080617  0.99322422  0.89001672    -0.21300
C3759       C  0.63878269  0.96267320  0.56205620    -0.21300
C3760       C  0.63970581  0.99212513  0.56244855    -0.21300
C3761       C  0.60369063  0.89281603  0.96081575    -0.22400
C3762       C  0.60379017  0.89259531  0.99018309    -0.22400
C3763       C  0.62944432  0.56880653  0.96170556    -0.22400
C3764       C  0.62959674  0.56862441  0.99095910    -0.22400
C3765       C  0.62066887  0.92699024  0.92353011    -0.17700
C3766       C  0.62441420  0.53152010  0.92399368    -0.17700
C3767       C  0.62452329  0.53088849  0.52838652    -0.17700
C3768       C  0.62062636  0.92627457  0.52781786    -0.17700
H3769       H  0.64766517  0.94983627  0.87310021     0.15200
H3770       H  0.65000816  0.50593944  0.87291814     0.15200
H3771       H  0.64613135  0.94868167  0.57915392     0.12800
H3772       H  0.64879325  0.50446768  0.57986734     0.15200
H3773       H  0.59540639  0.87589477  0.94745463     0.13500
H3774       H  0.59564210  0.87546302  0.50341053     0.13500
H3775       H  0.63319085  0.58768350  0.94862765     0.13500
H3776       H  0.63345937  0.58737125  0.50413389     0.13500
H3777       H  0.60962943  0.97953472  0.95068574     0.26700
H3778       H  0.60992164  0.97917660  0.50090825     0.26700
N3779       N  0.92950385  0.62432807  0.97752721    -0.36000
N3780       N  0.97457775  0.62078270  0.52103524    -0.56600
N3781       N  0.51835392  0.62376381  0.97663036    -0.36000
N3782       N  0.97324113  0.62283854  0.93295560    -0.56600
C3783       C  0.91485262  0.61531535  0.50105138     0.27600
C3784       C  0.91406381  0.61645324  0.95410018     0.27600
C3785       C  0.53353749  0.61471438  0.49983538     0.27500
C3786       C  0.53277474  0.61518464  0.95283797     0.27500
C3787       C  0.95154206  0.62654530  0.53775396     0.36200
C3788       C  0.49798662  0.62668704  0.53720313     0.36200
C3789       C  0.94980613  0.62888966  0.91683845     0.36200
C3790       C  0.49638919  0.62838940  0.91628856     0.36200
C3791       C  0.88999564  0.60153639  0.99233219    -0.21300
C3792       C  0.88952279  0.60219440  0.96288115    -0.21300
C3793       C  0.55762349  0.59996319  0.99064838    -0.21300
C3794       C  0.55710591  0.60019357  0.96111228    -0.21300
C3795       C  0.96037113  0.63667565  0.56435046    -0.22400
C3796       C  0.98977832  0.63682132  0.56397406    -0.22400
C3797       C  0.95812038  0.63894268  0.89003362    -0.22400
C3798       C  0.98756919  0.63864834  0.88967614    -0.22400
C3799       C  0.92289543  0.62019889  0.53006240    -0.17700
C3800       C  0.92126711  0.62242172  0.92510989    -0.17700
C3801       C  0.52502468  0.62151411  0.92399115    -0.17700
C3802       C  0.52641895  0.62009458  0.52897690    -0.17700
H3803       H  0.87405022  0.59143147  0.50557343     0.15200
H3804       H  0.87313442  0.59269127  0.94965577     0.15200
H3805       H  0.57354311  0.58952192  0.50378726     0.15200
H3806       H  0.57258745  0.58987153  0.94743777     0.15200
H3807       H  0.94709423  0.64315266  0.58229043     0.13500
H3808       H  0.50346318  0.64339197  0.58158321     0.13500
H3809       H  0.94447192  0.64549097  0.87238038     0.13500
H3810       H  0.50082771  0.64504795  0.87169850     0.13500
H3811       H  0.94775033  0.63744335  0.97756328     0.26700
H3812       H  0.50051986  0.63743490  0.97702241     0.26700
N3813       N  0.83529053  0.93213297  0.97644983    -0.36000
N3814       N  0.83043716  0.97637520  0.93242496    -0.56600
N3815       N  0.83303689  0.52021205  0.97713622    -0.36000
N3816       N  0.83304282  0.97565430  0.52118261    -0.56600
C3817       C  0.82813899  0.91624421  0.95319165     0.27600
C3818       C  0.82971354  0.91584380  0.49986335     0.27600
C3819       C  0.82495950  0.53603371  0.95404029     0.27500
C3820       C  0.82644141  0.53563286  0.50092355     0.27500
C3821       C  0.83711901  0.95322234  0.91596069     0.36200
C3822       C  0.83571790  0.50003098  0.91618389     0.36200
C3823       C  0.84060940  0.95235941  0.53697722     0.36200
C3824       C  0.83921390  0.49898418  0.53748063     0.36200
C3825       C  0.81742473  0.88979934  0.96196031    -0.21300
C3826       C  0.81848920  0.88951885  0.99144763    -0.21300
C3827       C  0.81267194  0.56159372  0.96331251    -0.21300
C3828       C  0.81365423  0.56136778  0.99288433    -0.21300
C3829       C  0.84659661  0.96227136  0.88929203    -0.22400
C3830       C  0.84565708  0.99167982  0.88940150    -0.22400
C3831       C  0.85144895  0.96102245  0.56326183    -0.22400
C3832       C  0.85057034  0.99036219  0.56358429    -0.22400
C3833       C  0.83355134  0.92409739  0.92438617    -0.17700
C3834       C  0.83661469  0.92342407  0.52839616    -0.17700
C3835       C  0.83352068  0.52782164  0.52952313    -0.17700
C3836       C  0.83053749  0.52886677  0.92495023    -0.17700
H3837       H  0.80986056  0.87234759  0.94854034     0.15200
H3838       H  0.81180903  0.87184421  0.50505122     0.15200
H3839       H  0.80399148  0.57874366  0.95017698     0.15200
H3840       H  0.80587804  0.57830005  0.50681341     0.15200
H3841       H  0.85342044  0.94935177  0.87138101     0.13500
H3842       H  0.85160982  0.50496711  0.87152198     0.13500
H3843       H  0.85938459  0.94791305  0.58053189     0.13500
H3844       H  0.85781368  0.50348205  0.58112234     0.13500
H3845       H  0.84681047  0.95131647  0.97621980     0.26700
H3846       H  0.84559254  0.50170345  0.97660146     0.26700
N3847       N  0.93581749  0.82813348  0.97612782    -0.36000
N3848       N  0.97915682  0.83028057  0.93105401    -0.56600
N3849       N  0.52367757  0.83175274  0.97558428    -0.36000
N3850       N  0.98064178  0.82934301  0.52071477    -0.56600
C3851       C  0.92012363  0.83639637  0.95289404     0.27600
C3852       C  0.92079822  0.83600286  0.49986886     0.27600
C3853       C  0.54017503  0.82849489  0.95168526     0.27500
C3854       C  0.54105569  0.82819695  0.49888501     0.27500
C3855       C  0.95553784  0.82560830  0.91476909     0.36200
C3856       C  0.50214301  0.82646407  0.91371788     0.36200
C3857       C  0.95721709  0.82475942  0.53734104     0.36200
C3858       C  0.50401560  0.82597875  0.53777232     0.36200
C3859       C  0.89534768  0.84990427  0.96206419    -0.21300
C3860       C  0.89578448  0.84963050  0.99144076    -0.21300
C3861       C  0.56797007  0.82191760  0.96002928    -0.21300
C3862       C  0.56852653  0.82175094  0.98942754    -0.21300
C3863       C  0.96349437  0.81760577  0.88728010    -0.22400
C3864       C  0.99277204  0.81842642  0.88644102    -0.22400
C3865       C  0.96571564  0.81723361  0.56482923    -0.22400
C3866       C  0.99501847  0.81843246  0.56531489    -0.22400
C3867       C  0.92708796  0.83134825  0.92364525    -0.17700
C3868       C  0.92847839  0.83036933  0.52890218    -0.17700
C3869       C  0.53308020  0.82944254  0.52854832    -0.17700
C3870       C  0.53120818  0.83031833  0.92236365    -0.17700
H3871       H  0.87873252  0.85950083  0.94916212     0.15200
H3872       H  0.87956179  0.85904448  0.50480566     0.15200
H3873       H  0.58598283  0.81636337  0.94647276     0.15200
H3874       H  0.58704857  0.81596430  0.50218875     0.15200
H3875       H  0.94979936  0.81170625  0.86945207     0.13500
H3876       H  0.50492031  0.81256056  0.86763727     0.13500
H3877       H  0.95238413  0.81153906  0.58298517     0.13500
H3878       H  0.50740282  0.81320896  0.58414871     0.13500
H3879       H  0.95428848  0.81551123  0.97583688     0.26700
H3880       H  0.50247993  0.83848551  0.97588414     0.26700
C3881       C  0.70972230  0.57849518  0.62352079     0.24200
C3882       C  0.69445625  0.59550926  0.60354634    -0.23900
C3883       C  0.71015647  0.61258392  0.58407680     0.19100
C3884       C  0.74007093  0.61203169  0.58382729     0.24100
C3885       C  0.75542090  0.59436221  0.60300174    -0.23900
C3886       C  0.73990385  0.57799598  0.62330504     0.19000
F3887       F  0.75380679  0.56054781  0.64215479    -0.13800
F3888       F  0.69554751  0.56127865  0.64236800    -0.16200
F3889       F  0.75400922  0.62893389  0.56452685    -0.16200
F3890       F  0.69657271  0.62983449  0.56482843    -0.13800
C3891       C  0.83150784  0.74086226  0.57820459     0.24200
C3892       C  0.84967803  0.75605919  0.59707182    -0.23900
C3893       C  0.86532474  0.74058679  0.61779841     0.19100
C3894       C  0.86470015  0.71052728  0.61817011     0.24100
C3895       C  0.84810514  0.69515328  0.59805291    -0.23900
C3896       C  0.83073236  0.71067288  0.57868376     0.19000
F3897       F  0.81447845  0.69670480  0.55888050    -0.13800
F3898       F  0.81582395  0.75506551  0.55808383    -0.16200
F3899       F  0.88086303  0.69643590  0.63797707    -0.16200
F3900       F  0.88165335  0.75457592  0.63754956    -0.13800
C3901       C  0.58454661  0.71126879  0.61909846     0.24200
C3902       C  0.60033936  0.69559115  0.59856054    -0.23900
C3903       C  0.61822159  0.71070574  0.57944541     0.19100
C3904       C  0.61961271  0.74079898  0.58018352     0.24100
C3905       C  0.60294314  0.75663945  0.59992726    -0.23900
C3906       C  0.58563767  0.74144921  0.61961514     0.19000
F3907       F  0.56851636  0.75578925  0.63838577    -0.13800
F3908       F  0.56781357  0.69741075  0.63858957    -0.16200
F3909       F  0.63686769  0.75442607  0.56099988    -0.16200
F3910       F  0.63333142  0.69644812  0.55894831    -0.13800
C3911       C  0.74539093  0.83431486  0.58349584     0.24200
C3912       C  0.76028368  0.85551946  0.59902870    -0.23900
C3913       C  0.74476369  0.87601859  0.61480306     0.19100
C3914       C  0.71477612  0.87606472  0.61405679     0.24100
C3915       C  0.69971322  0.85548271  0.59753013    -0.23900
C3916       C  0.71543290  0.83399243  0.58311881     0.19000
F3917       F  0.70194030  0.81313145  0.56780599    -0.13800
F3918       F  0.75990133  0.81394507  0.56842480    -0.16200
F3919       F  0.70058386  0.89646493  0.62937643    -0.16200
F3920       F  0.75862686  0.89694472  0.62975770    -0.13800
C3921       C  0.62695985  0.87572513  0.71052326     0.24200
C3922       C  0.61005073  0.85602564  0.69496921    -0.23900
C3923       C  0.59486853  0.83470149  0.71015967     0.19100
C3924       C  0.59354794  0.83537041  0.74017242     0.24100
C3925       C  0.60822428  0.85680511  0.75571213    -0.23900
C3926       C  0.62645895  0.87575170  0.74066663     0.19000
F3927       F  0.64247538  0.89551801  0.75496952    -0.13800
F3928       F  0.64242521  0.89625230  0.69668339    -0.16200
F3929       F  0.57748579  0.81526836  0.75397955    -0.16200
F3930       F  0.58065045  0.81355129  0.69588153    -0.13800
C3931       C  0.60594580  0.57692610  0.74167609     0.24200
C3932       C  0.59270324  0.59949712  0.75690922    -0.23900
C3933       C  0.58131523  0.62292875  0.74146870     0.19100
C3934       C  0.58209112  0.62317773  0.71138104     0.24100
C3935       C  0.59394084  0.59978546  0.69618636    -0.23900
C3936       C  0.60658922  0.57709224  0.71180996     0.19000
F3937       F  0.61921257  0.55446933  0.69829938    -0.13800
F3938       F  0.61791104  0.55413475  0.75553367    -0.16200
F3939       F  0.57032824  0.64587494  0.69726613    -0.16200
F3940       F  0.56831589  0.64507707  0.75535063    -0.13800
C3941       C  0.61441360  0.71300920  0.87513265     0.24200
C3942       C  0.59990535  0.69710100  0.85396896    -0.23900
C3943       C  0.58699467  0.71189143  0.83091236     0.19100
C3944       C  0.58743961  0.74207703  0.82973076     0.24100
C3945       C  0.60077730  0.75814074  0.85171204    -0.23900
C3946       C  0.61473951  0.74309262  0.87412549     0.19000
F3947       F  0.62788649  0.75744759  0.89589274    -0.13800
F3948       F  0.62678559  0.69955883  0.89791416    -0.16200
F3949       F  0.57341137  0.75545867  0.80790908    -0.16200
F3950       F  0.57347494  0.69707588  0.80969663    -0.13800
C3951       C  0.83303862  0.58706585  0.71285297     0.24200
C3952       C  0.85353761  0.60310874  0.69743938    -0.23900
C3953       C  0.87226519  0.62132369  0.71276481     0.19100
C3954       C  0.87194165  0.62175915  0.74289467     0.24100
C3955       C  0.85302713  0.60384717  0.75825618    -0.23900
C3956       C  0.83291406  0.58728455  0.74291836     0.19000
F3957       F  0.81322947  0.57102270  0.75706543    -0.13800
F3958       F  0.81312747  0.57100390  0.69882068    -0.16200
F3959       F  0.89132073  0.63842243  0.75697393    -0.16200
F3960       F  0.89201668  0.63754847  0.69871732    -0.13800
C3961       C  0.73747764  0.61489955  0.86934449     0.24200
C3962       C  0.75342540  0.59898500  0.84917135    -0.23900
C3963       C  0.73840992  0.58510349  0.82667517     0.19100
C3964       C  0.70816297  0.58494626  0.82612825     0.24100
C3965       C  0.69233312  0.59918886  0.84773182    -0.23900
C3966       C  0.70756952  0.61510029  0.86857514     0.19000
F3967       F  0.69354609  0.63056619  0.88897845    -0.13800
F3968       F  0.75076898  0.63018851  0.89036236    -0.16200
F3969       F  0.69453891  0.56979643  0.80522033    -0.16200
F3970       F  0.75285821  0.57074732  0.80578068    -0.13800
C3971       C  0.87530173  0.83143015  0.74177228     0.24200
C3972       C  0.85771747  0.85094603  0.75686463    -0.23900
C3973       C  0.83986997  0.86960347  0.74102324     0.19100
C3974       C  0.83998860  0.86914976  0.71098217     0.24100
C3975       C  0.85829460  0.85036565  0.69584398    -0.23900
C3976       C  0.87565638  0.83121361  0.71160284     0.19000
F3977       F  0.89413545  0.81327620  0.69791083    -0.13800
F3978       F  0.89336920  0.81357040  0.75612619    -0.16200
F3979       F  0.82222819  0.88742589  0.69672037    -0.16200
F3980       F  0.82238588  0.88867136  0.75454718    -0.13800
C3981       C  0.74192336  0.86795261  0.83167838     0.24200
C3982       C  0.75766010  0.85272844  0.85263031    -0.23900
C3983       C  0.74249804  0.83601655  0.87291349     0.19100
C3984       C  0.71247772  0.83580239  0.87323289     0.24100
C3985       C  0.69684293  0.85288355  0.85377842    -0.23900
C3986       C  0.71185946  0.86825368  0.83245595     0.19000
F3987       F  0.69740255  0.88396622  0.81253420    -0.13800
F3988       F  0.75552127  0.88380371  0.81128687    -0.16200
F3989       F  0.69880884  0.82013539  0.89373320    -0.16200
F3990       F  0.75669894  0.82039709  0.89309160    -0.13800
C3991       C  0.83155587  0.71237699  0.87693280     0.24200
C3992       C  0.84709981  0.69653863  0.85647169    -0.23900
C3993       C  0.86253359  0.71125452  0.83501246     0.19100
C3994       C  0.86398587  0.74126854  0.83518572     0.24100
C3995       C  0.84961762  0.75706903  0.85657488    -0.23900
C3996       C  0.83256366  0.74240497  0.87679497     0.19000
F3997       F  0.81827563  0.75702544  0.89762362    -0.13800
F3998       F  0.81701690  0.69885326  0.89831939    -0.16200
F3999       F  0.87959587  0.75482523  0.81456166    -0.16200
F4000       F  0.87657424  0.69651083  0.81408211    -0.13800
loop_ 
_geom_bond_atom_site_label_1 
_geom_bond_atom_site_label_2 
_geom_bond_distance 
_geom_bond_site_symmetry_2 
_ccdc_geom_bond_type 
O1          Cr19   2.001       .  S
O1            C9   1.267       .  A
O2          Cr19   1.983       .  S
O2            C3   1.260       .  A
C3            O4   1.264       .  A
C3          C472   1.487       .  S
O4          Cr20   2.000       .  S
O5          Cr20   1.988       .  S
O5            C6   1.263       .  A
C6            O7   1.267       .  A
C6          C482   1.490       .  S
O7          Cr21   2.008       .  S
O8          Cr21   1.965       .  S
O8            C9   1.260       .  A
C9          C495   1.473       .  S
O10         Cr19   1.976       .  S
O10          C18   1.257       .  A
O11         Cr19   2.009       .  S
O11          C12   1.266       .  A
C12          O13   1.260       .  A
C12         C233   1.490       .  S
O13         Cr20   1.976       .  S
O14         Cr20   2.012       .  S
O14          C15   1.264       .  A
C15          O16   1.260       .  A
C15         C333   1.492       .  S
O16         Cr21   1.978       .  S
O17         Cr21   2.015       .  S
O17          C18   1.263       .  A
C18         C367   1.502       .  S
Cr19         O22   1.773       .  S
Cr20         O22   1.772       .  S
Cr21         O22   1.771       .  S
O23         Cr41   1.978       .  S
O23          C31   1.260       .  A
O24         Cr41   1.992       .  S
O24          C25   1.263       .  A
C25          O26   1.261       .  A
C25         C492   1.472       .  S
O26         Cr42   1.979       .  S
O27         Cr42   2.015       .  S
O27          C28   1.270       .  A
C28          O29   1.262       .  A
C28         C462   1.497       .  S
O29         Cr43   1.990       .  S
O30         Cr43   2.000       .  S
O30          C31   1.265       .  A
C31         C455   1.480       .  S
O32         Cr41   2.012       .  S
O32          C40   1.265       .  A
O33         Cr41   1.972       .  S
O33          C34   1.257       .  A
C34          O35   1.268       .  A
C34         C300   1.498       .  S
O35         Cr42   2.024       .  S
O36         Cr42   1.981       .  S
O36          C37   1.260       .  A
C37          O38   1.265       .  A
C37         C336   1.498       .  S
O38         Cr43   2.014       .  S
O39         Cr43   1.985       .  S
O39          C40   1.261       .  A
C40         C234   1.497       .  S
Cr41         O44   1.774       .  S
Cr42         O44   1.773       .  S
Cr43         O44   1.773       .  S
O45         Cr63   2.004       .  S
O45          C53   1.270       .  A
O46         Cr63   1.981       .  S
O46          C47   1.262       .  A
C47          O48   1.265       .  A
C47         C442   1.483       .  S
O48         Cr64   2.002       .  S
O49         Cr64   1.978       .  S
O49          C50   1.259       .  A
C50          O51   1.260       .  A
C50         C432   1.478       .  S
O51         Cr65   1.985       .  S
O52         Cr65   1.997       .  S
O52          C53   1.268       .  A
C53         C465   1.496       .  S
O54         Cr63   1.978       .  S
O54          C62   1.258       .  A
O55         Cr63   2.012       .  S
O55          C56   1.265       .  A
C56          O57   1.257       .  A
C56         C301   1.498       .  S
O57         Cr64   1.974       .  S
O58         Cr64   2.012       .  S
O58          C59   1.268       .  A
C59          O60   1.266       .  A
C59         C231   1.492       .  S
O60         Cr65   1.988       .  S
O61         Cr65   1.992       .  S
O61          C62   1.254       .  A
C62         C266   1.494       .  S
Cr63         O66   1.765       .  S
Cr64         O66   1.771       .  S
Cr65         O66   1.778       .  S
O67         Cr85   1.999       .  S
O67          C75   1.264       .  A
O68         Cr85   1.978       .  S
O68          C69   1.263       .  A
C69          O70   1.270       .  A
C69         C485   1.485       .  S
O70         Cr86   2.013       .  S
O71         Cr86   1.979       .  S
O71          C72   1.259       .  A
C72          O73   1.265       .  A
C72         C425   1.485       .  S
O73         Cr87   2.000       .  S
O74         Cr87   1.992       .  S
O74          C75   1.263       .  A
C75         C445   1.491       .  S
O76         Cr85   1.980       .  S
O76          C84   1.261       .  A
O77         Cr85   2.006       .  S
O77          C78   1.261       .  A
C78          O79   1.258       .  A
C78         C265   1.492       .  S
O79         Cr86   1.982       .  S
O80         Cr86   2.013       .  S
O80          C81   1.266       .  A
C81          O82   1.262       .  A
C81         C232   1.518       .  S
O82         Cr87   1.983       .  S
O83         Cr87   2.013       .  S
O83          C84   1.264       .  A
C84         C370   1.505       .  S
Cr85         O88   1.770       .  S
Cr86         O88   1.773       .  S
Cr87         O88   1.775       .  S
O89        Cr107   1.986       .  S
O89          C97   1.264       .  A
O90        Cr107   2.007       .  S
O90          C91   1.265       .  A
C91          O92   1.262       .  A
C91         C405   1.490       .  S
O92        Cr108   1.986       .  S
O93        Cr108   2.000       .  S
O93          C94   1.266       .  A
C94          O95   1.261       .  A
C94         C422   1.483       .  S
O95        Cr109   1.982       .  S
O96        Cr109   2.003       .  S
O96          C97   1.266       .  A
C97         C415   1.486       .  S
O98        Cr107   2.010       .  S
O98         C106   1.264       .  A
O99        Cr107   1.990       .  S
O99         C100   1.263       .  A
C100        O101   1.263       .  A
C100        C369   1.515       .  S
O101       Cr108   2.014       .  S
O102       Cr108   1.985       .  S
O102        C103   1.261       .  A
C103        O104   1.262       .  A
C103        C200   1.514       .  S
O104       Cr109   2.002       .  S
O105       Cr109   1.979       .  S
O105        C106   1.259       .  A
C106        C268   1.490       .  S
Cr107       O110   1.769       .  S
Cr108       O110   1.770       .  S
Cr109       O110   1.773       .  S
O111       Cr129   1.974       .  S
O111        C119   1.261       .  A
O112       Cr129   1.998       .  S
O112        C113   1.265       .  A
C113        O114   1.261       .  A
C113        C412   1.472       .  S
O114       Cr130   1.974       .  S
O115       Cr130   1.994       .  S
O115        C116   1.263       .  A
C116        O117   1.262       .  A
C116        C475   1.486       .  S
O117       Cr131   1.987       .  S
O118       Cr131   2.006       .  S
O118        C119   1.269       .  A
C119        C392   1.482       .  S
O120       Cr129   2.015       .  S
O120        C128   1.263       .  A
O121       Cr129   1.977       .  S
O121        C122   1.259       .  A
C122        O123   1.262       .  A
C122        C334   1.486       .  S
O123       Cr130   2.002       .  S
O124       Cr130   1.965       .  S
O124        C125   1.257       .  A
C125        O126   1.267       .  A
C125        C197   1.486       .  S
O126       Cr131   2.012       .  S
O127       Cr131   1.977       .  S
O127        C128   1.257       .  A
C128        C368   1.503       .  S
Cr129       O132   1.774       .  S
Cr130       O132   1.773       .  S
Cr131       O132   1.771       .  S
O133       Cr151   1.979       .  S
O133        C141   1.262       .  A
O134       Cr151   2.010       .  S
O134        C135   1.269       .  A
C135        O136   1.264       .  A
C135        C382   1.492       .  S
O136       Cr152   1.987       .  S
O137       Cr152   1.987       .  S
O137        C138   1.263       .  A
C138        O139   1.261       .  A
C138        C435   1.481       .  S
O139       Cr153   1.980       .  S
O140       Cr153   2.009       .  S
O140        C141   1.267       .  A
C141        C402   1.486       .  S
O142       Cr151   2.018       .  S
O142        C150   1.265       .  A
O143       Cr151   1.971       .  S
O143        C144   1.258       .  A
C144        O145   1.257       .  A
C144        C267   1.492       .  S
O145       Cr152   1.993       .  S
O146       Cr152   1.985       .  S
O146        C147   1.263       .  A
C147        O148   1.266       .  A
C147        C199   1.491       .  S
O148       Cr153   2.009       .  S
O149       Cr153   1.982       .  S
O149        C150   1.259       .  A
C150        C302   1.499       .  S
Cr151       O154   1.764       .  S
Cr152       O154   1.775       .  S
Cr153       O154   1.769       .  S
O155       Cr173   2.006       .  S
O155        C163   1.268       .  A
O156       Cr173   1.981       .  S
O156        C157   1.261       .  A
C157        O158   1.267       .  A
C157        C452   1.485       .  S
O158       Cr174   2.007       .  S
O159       Cr174   1.984       .  S
O159        C160   1.261       .  A
C160        O161   1.267       .  A
C160        C385   1.490       .  S
O161       Cr175   2.006       .  S
O162       Cr175   1.984       .  S
O162        C163   1.263       .  A
C163        C395   1.485       .  S
O164       Cr173   1.982       .  S
O164        C172   1.260       .  A
O165       Cr173   2.018       .  S
O165        C166   1.265       .  A
C166        O167   1.259       .  A
C166        C198   1.502       .  S
O167       Cr174   1.984       .  S
O168       Cr174   2.015       .  S
O168        C169   1.266       .  A
C169        O170   1.257       .  A
C169        C335   1.492       .  S
O170       Cr175   1.972       .  S
O171       Cr175   2.013       .  S
O171        C172   1.264       .  A
C172        C299   1.496       .  S
Cr173       O176   1.773       .  S
Cr174       O176   1.776       .  S
Cr175       O176   1.776       .  S
N177        H209   1.041       .  S
N177        C181   1.350       .  A
N177       C1182   1.354       .  A
N178        C185   1.352       .  A
N178       C2186   1.357       .  A
N179        H210   1.043       .  S
N179        C183   1.358       .  A
N179       C1184   1.351       .  A
N180        C187   1.358       .  A
N180       C2188   1.354       .  A
C181        C189   1.388       .  A
C181        C197   1.413       .  A
C182       N1177   1.354       .  A
C182        C198   1.415   1_565  A
C182       C1190   1.387       .  A
C183        C191   1.392       .  A
C183        C200   1.426       .  A
C184       N1179   1.351       .  A
C184        C199   1.413   1_565  A
C184       C1192   1.384       .  A
C185        C197   1.412       .  A
C185        C193   1.380       .  A
C186       N2178   1.357   1_455  A
C186        C200   1.420       .  A
C186       C2194   1.387   1_455  A
C187        C195   1.381       .  A
C187        C198   1.417       .  A
C188       N2180   1.354       .  A
C188        C199   1.418   1_655  A
C188       C2196   1.383       .  A
C189        C190   1.377       .  A
C189        H201   1.082       .  S
C190       C1182   1.387       .  A
C190       H1202   1.082       .  S
C191        C192   1.377       .  A
C191        H203   1.079       .  S
C192       C1184   1.384       .  A
C192       H1204   1.083       .  S
C193        C194   1.367       .  A
C193        H205   1.072       .  S
C194       C2186   1.387       .  A
C194       H2206   1.078       .  S
C195        C196   1.366       .  A
C195        H207   1.074       .  S
C196       C2188   1.383       .  A
C196       H2208   1.072       .  S
H202       C1190   1.082   1_545  S
H204       C1192   1.083   1_545  S
H206       C2194   1.078   1_455  S
H208       C2196   1.072   1_455  S
N211       H2243   1.043       .  S
N211        C216   1.358       .  A
N211       C1215   1.351       .  A
N212        C219   1.354       .  A
N212        C220   1.356       .  A
N213        H244   1.041       .  S
N213        C218   1.350       .  A
N213       C1217   1.353       .  A
N214        C221   1.359       .  A
N214        C222   1.354       .  A
C215       N1211   1.351   1_545  A
C215        C231   1.412       .  A
C215       C1223   1.384   1_545  A
C216        C232   1.424       .  A
C216        C224   1.390       .  A
C217       N1213   1.353   1_545  A
C217        C234   1.415       .  A
C217       C1225   1.387   1_545  A
C218        C233   1.413       .  A
C218        C226   1.388       .  A
C219        C227   1.382       .  A
C219       C2231   1.417       .  A
C220        C234   1.419       .  A
C220        C228   1.382       .  A
C221        C229   1.387       .  A
C221       C2232   1.423       .  A
C222        C230   1.379       .  A
C222        C233   1.416       .  A
C223        C224   1.377       .  A
C223       C1215   1.384       .  A
C223       H1235   1.083       .  S
C224        H236   1.080       .  S
C225        C226   1.377       .  A
C225       C1217   1.387       .  A
C225       H1237   1.082       .  S
C226        H238   1.082       .  S
C227        C228   1.370       .  A
C227       H2239   1.072       .  S
C228        H240   1.073       .  S
C229        C230   1.366       .  A
C229       H2241   1.078       .  S
C230        H242   1.070       .  S
C231       C2219   1.417   1_455  A
C232       C2221   1.423   1_455  A
H235       C1223   1.083   1_545  S
H237       C1225   1.082   1_545  S
H239       C2227   1.072   1_455  S
H241       C2229   1.078   1_455  S
H243       N2211   1.043       .  S
N245        H277   1.041       .  S
N245        C249   1.354       .  A
N245       C1250   1.353       .  A
N246        C253   1.354       .  A
N246        C754   1.354       .  A
N247        H278   1.041       .  S
N247        C251   1.354       .  A
N247       C1252   1.353       .  A
N248        C255   1.352       .  A
N248        C756   1.352       .  A
C249        C257   1.384       .  A
C249        C265   1.412       .  A
C250       N1245   1.353   1_545  A
C250        C266   1.419       .  A
C250       C1258   1.390   1_545  A
C251        C259   1.383       .  A
C251        C268   1.411       .  A
C252       N1247   1.353   1_545  A
C252        C267   1.419       .  A
C252       C1260   1.391   1_545  A
C253        C265   1.414       .  A
C253        C261   1.382       .  A
C254        N746   1.354       .  A
C254        C268   1.412   1_556  A
C254        C762   1.381       .  A
C255        C263   1.386       .  A
C255        C266   1.413       .  A
C256        N748   1.352       .  A
C256        C267   1.415   1_556  A
C256        C764   1.387       .  A
C257        C258   1.372       .  A
C257        H269   1.082       .  S
C258       C1250   1.390       .  A
C258       H1270   1.080       .  S
C259        C260   1.369       .  A
C259        H271   1.082       .  S
C260       C1252   1.391       .  A
C260       H1272   1.079       .  S
C261        C262   1.366       .  A
C261        H273   1.074       .  S
C262        C754   1.381       .  A
C262        H774   1.074       .  S
C263        C264   1.360       .  A
C263        H275   1.081       .  S
C264        C756   1.387       .  A
C264        H776   1.081       .  S
H270       C1258   1.080   1_545  S
H272       C1260   1.079   1_545  S
H274        C762   1.074   1_554  S
H276        C764   1.081   1_554  S
N279        H311   1.046       .  S
N279        C284   1.356       .  A
N279        C783   1.355       .  A
N280        C287   1.353       .  A
N280       C2288   1.353       .  A
N281        H312   1.046       .  S
N281        C286   1.355       .  A
N281        C785   1.357       .  A
N282        C289   1.354       .  A
N282       C2290   1.354       .  A
C283        N779   1.355   1_554  A
C283        C299   1.418       .  A
C283        C791   1.384   1_554  A
C284        C300   1.417       .  A
C284        C292   1.384       .  A
C285        N781   1.357       .  A
C285        C302   1.417   1_556  A
C285        C793   1.383       .  A
C286        C301   1.420       .  A
C286        C294   1.386       .  A
C287        C299   1.414       .  A
C287        C295   1.386       .  A
C288       N2280   1.353       .  A
C288        C302   1.414   1_655  A
C288       C2296   1.385       .  A
C289        C297   1.386       .  A
C289        C300   1.417       .  A
C290       N2282   1.354       .  A
C290        C301   1.419   1_655  A
C290       C2298   1.388       .  A
C291        C292   1.370       .  A
C291        C783   1.384       .  A
C291        H803   1.073       .  S
C292        H304   1.076       .  S
C293        C294   1.374       .  A
C293        C785   1.383       .  A
C293        H805   1.077       .  S
C294        H306   1.075       .  S
C295        C296   1.371       .  A
C295        H307   1.082       .  S
C296       C2288   1.385       .  A
C296       H2308   1.082       .  S
C297        C298   1.373       .  A
C297        H309   1.082       .  S
C298       C2290   1.388       .  A
C298       H2310   1.082       .  S
H303        C791   1.073   1_554  S
H305        C793   1.077   1_554  S
H308       C2296   1.082   1_455  S
H310       C2298   1.082   1_455  S
N313        H345   1.041       .  S
N313        C317   1.351       .  A
N313        C818   1.351       .  A
N314        C321   1.357       .  A
N314       C1322   1.356       .  A
N315        H346   1.041       .  S
N315        C319   1.354       .  A
N315        C820   1.354       .  A
N316        C323   1.354       .  A
N316       C1324   1.354       .  A
C317        C325   1.387       .  A
C317        C333   1.411       .  A
C318        N813   1.351       .  A
C318        C334   1.410   1_556  A
C318        C826   1.387       .  A
C319        C327   1.387       .  A
C319        C336   1.417       .  A
C320        N815   1.354   1_554  A
C320        C335   1.417       .  A
C320        C828   1.387   1_554  A
C321        C333   1.418       .  A
C321        C329   1.382       .  A
C322       N1314   1.356   1_545  A
C322        C336   1.421       .  A
C322       C1330   1.384   1_545  A
C323        C331   1.382       .  A
C323        C334   1.414       .  A
C324       N1316   1.354       .  A
C324        C335   1.415   1_565  A
C324       C1332   1.383       .  A
C325        C326   1.372       .  A
C325        H337   1.082       .  S
C326        C818   1.387       .  A
C326        H838   1.082       .  S
C327        C328   1.376       .  A
C327        H339   1.082       .  S
C328        C820   1.387       .  A
C328        H840   1.082       .  S
C329        C330   1.367       .  A
C329        H341   1.075       .  S
C330       C1322   1.384       .  A
C330       H1342   1.072       .  S
C331        C332   1.364       .  A
C331        H343   1.073       .  S
C332       C1324   1.383       .  A
C332       H1344   1.073       .  S
H338        C826   1.082   1_554  S
H340        C828   1.082   1_554  S
H342       C1330   1.072   1_545  S
H344       C1332   1.073   1_545  S
N347        H379   1.042       .  S
N347        C351   1.360       .  A
N347        C852   1.357       .  A
N348        C355   1.354       .  A
N348       C2356   1.353       .  A
N349        H380   1.037       .  S
N349        C353   1.360       .  A
N349        C854   1.362       .  A
N350        C357   1.355       .  A
N350       C2358   1.357       .  A
C351        C359   1.382       .  A
C351        C367   1.418       .  A
C352        N847   1.358       .  A
C352        C368   1.421   1_556  A
C352        C860   1.384       .  A
C353        C361   1.387       .  A
C353        C370   1.428       .  A
C354        N849   1.362       .  A
C354        C369   1.430   1_556  A
C354        C862   1.387       .  A
C355        C367   1.415       .  A
C355        C363   1.382       .  A
C356       N2348   1.353   1_455  A
C356        C370   1.425       .  A
C356       C2364   1.393   1_455  A
C357        C365   1.383       .  A
C357        C368   1.420       .  A
C358       N2350   1.357   1_455  A
C358        C369   1.431       .  A
C358       C2366   1.392   1_455  A
C359        C360   1.366       .  A
C359        H371   1.076       .  S
C360        C852   1.384       .  A
C360        H872   1.072       .  S
C361        C362   1.367       .  A
C361        H373   1.082       .  S
C362        C854   1.387       .  A
C362        H874   1.081       .  S
C363        C364   1.366       .  A
C363        H375   1.082       .  S
C364       C2356   1.393       .  A
C364       H2376   1.077       .  S
C365        C366   1.368       .  A
C365        H377   1.081       .  S
C366       C2358   1.392       .  A
C366       H2378   1.076       .  S
H372        C860   1.072   1_554  S
H374        C862   1.081   1_554  S
H376       C2364   1.077   1_455  S
H378       C2366   1.076   1_455  S
C381        C382   1.412       .  A
C381        C386   1.408       .  A
C381        F388   1.358       .  S
C382        C383   1.409       .  A
C383        C384   1.395       .  A
C383        F390   1.358       .  S
C384        C385   1.407       .  A
C384        F389   1.358       .  S
C385        C386   1.412       .  A
C386        F387   1.358       .  S
C391        C392   1.409       .  A
C391        C396   1.403       .  A
C391        F398   1.358       .  S
C392        C393   1.406       .  A
C393        C394   1.397       .  A
C393        F400   1.358       .  S
C394        C395   1.408       .  A
C394        F399   1.358       .  S
C395        C396   1.409       .  A
C396        F397   1.358       .  S
C401        C402   1.409       .  A
C401        C406   1.403       .  A
C401        F408   1.358       .  S
C402        C403   1.407       .  A
C403        C404   1.400       .  A
C403        F410   1.358       .  S
C404        C405   1.410       .  A
C404        F409   1.358       .  S
C405        C406   1.410       .  A
C406        F407   1.358       .  S
C411        C412   1.405       .  A
C411        C416   1.397       .  A
C411        F418   1.358       .  S
C412        C413   1.403       .  A
C413        C414   1.399       .  A
C413        F420   1.359       .  S
C414        C415   1.413       .  A
C414        F419   1.358       .  S
C415        C416   1.408       .  A
C416        F417   1.357       .  S
C421        C422   1.408       .  A
C421        C426   1.402       .  A
C421        F428   1.358       .  S
C422        C423   1.407       .  A
C423        C424   1.397       .  A
C423        F430   1.359       .  S
C424        C425   1.408       .  A
C424        F429   1.358       .  S
C425        C426   1.410       .  A
C426        F427   1.358       .  S
C431        C432   1.408       .  A
C431        C436   1.389       .  A
C431        F438   1.359       .  S
C432        C433   1.408       .  A
C433        C434   1.400       .  A
C433        F440   1.358       .  S
C434        C435   1.409       .  A
C434        F439   1.357       .  S
C435        C436   1.409       .  A
C436        F437   1.359       .  S
C441        C442   1.404       .  A
C441        C446   1.398       .  A
C441        F448   1.358       .  S
C442        C443   1.408       .  A
C443        C444   1.403       .  A
C443        F450   1.358       .  S
C444        C445   1.410       .  A
C444        F449   1.358       .  S
C445        C446   1.414       .  A
C446        F447   1.358       .  S
C451        C452   1.408       .  A
C451        C456   1.398       .  A
C451        F458   1.358       .  S
C452        C453   1.409       .  A
C453        C454   1.401       .  A
C453        F460   1.357       .  S
C454        C455   1.407       .  A
C454        F459   1.358       .  S
C455        C456   1.407       .  A
C456        F457   1.359       .  S
C461        C462   1.407       .  A
C461        C466   1.395       .  A
C461        F468   1.358       .  S
C462        C463   1.414       .  A
C463        C464   1.411       .  A
C463        F470   1.358       .  S
C464        C465   1.412       .  A
C464        F469   1.358       .  S
C465        C466   1.411       .  A
C466        F467   1.358       .  S
C471        C472   1.410       .  A
C471        C476   1.403       .  A
C471        F478   1.358       .  S
C472        C473   1.409       .  A
C473        C474   1.397       .  A
C473        F480   1.358       .  S
C474        C475   1.409       .  A
C474        F479   1.359       .  S
C475        C476   1.408       .  A
C476        F477   1.358       .  S
C481        C482   1.410       .  A
C481        C486   1.402       .  A
C481        F488   1.358       .  S
C482        C483   1.411       .  A
C483        C484   1.400       .  A
C483        F490   1.358       .  S
C484        C485   1.407       .  A
C484        F489   1.358       .  S
C485        C486   1.408       .  A
C486        F487   1.358       .  S
C491        C492   1.405       .  A
C491        C496   1.396       .  A
C491        F498   1.358       .  S
C492        C493   1.407       .  A
C493        C494   1.396       .  A
C493        F500   1.359       .  S
C494        C495   1.406       .  A
C494        F499   1.359       .  S
C495        C496   1.407       .  A
C496        F497   1.358       .  S
O501       Cr519   2.002       .  S
O501        C509   1.267       .  A
O502       Cr519   1.983       .  S
O502        C503   1.260       .  A
C503        O504   1.264       .  A
C503        C972   1.487       .  S
O504       Cr520   2.000       .  S
O505       Cr520   1.988       .  S
O505        C506   1.263       .  A
C506        O507   1.267       .  A
C506        C982   1.490       .  S
O507       Cr521   2.008       .  S
O508       Cr521   1.965       .  S
O508        C509   1.260       .  A
C509        C995   1.473       .  S
O510       Cr519   1.976       .  S
O510        C518   1.257       .  A
O511       Cr519   2.009       .  S
O511        C512   1.266       .  A
C512        O513   1.260       .  A
C512        C733   1.490       .  S
O513       Cr520   1.976       .  S
O514       Cr520   2.012       .  S
O514        C515   1.264       .  A
C515        O516   1.260       .  A
C515        C833   1.492       .  S
O516       Cr521   1.978       .  S
O517       Cr521   2.015       .  S
O517        C518   1.263       .  A
C518        C867   1.502       .  S
Cr519       O522   1.773       .  S
Cr520       O522   1.772       .  S
Cr521       O522   1.771       .  S
O523       Cr541   1.978       .  S
O523        C531   1.260       .  A
O524       Cr541   1.992       .  S
O524        C525   1.263       .  A
C525        O526   1.261       .  A
C525        C992   1.473       .  S
O526       Cr542   1.979       .  S
O527       Cr542   2.015       .  S
O527        C528   1.270       .  A
C528        O529   1.262       .  A
C528        C962   1.497       .  S
O529       Cr543   1.989       .  S
O530       Cr543   2.000       .  S
O530        C531   1.265       .  A
C531        C955   1.480       .  S
O532       Cr541   2.012       .  S
O532        C540   1.265       .  A
O533       Cr541   1.972       .  S
O533        C534   1.257       .  A
C534        O535   1.268       .  A
C534        C800   1.498       .  S
O535       Cr542   2.024       .  S
O536       Cr542   1.981       .  S
O536        C537   1.260       .  A
C537        O538   1.265       .  A
C537        C836   1.498       .  S
O538       Cr543   2.014       .  S
O539       Cr543   1.986       .  S
O539        C540   1.261       .  A
C540        C734   1.497       .  S
Cr541       O544   1.774       .  S
Cr542       O544   1.773       .  S
Cr543       O544   1.773       .  S
O545       Cr563   2.004       .  S
O545        C553   1.270       .  A
O546       Cr563   1.981       .  S
O546        C547   1.262       .  A
C547        O548   1.265       .  A
C547        C942   1.483       .  S
O548       Cr564   2.002       .  S
O549       Cr564   1.978       .  S
O549        C550   1.259       .  A
C550        O551   1.260       .  A
C550        C932   1.478       .  S
O551       Cr565   1.985       .  S
O552       Cr565   1.997       .  S
O552        C553   1.268       .  A
C553        C965   1.496       .  S
O554       Cr563   1.978       .  S
O554        C562   1.258       .  A
O555       Cr563   2.012       .  S
O555        C556   1.265       .  A
C556        O557   1.257       .  A
C556        C801   1.498       .  S
O557       Cr564   1.973       .  S
O558       Cr564   2.012       .  S
O558        C559   1.268       .  A
C559        O560   1.266       .  A
C559        C731   1.492       .  S
O560       Cr565   1.988       .  S
O561       Cr565   1.991       .  S
O561        C562   1.254       .  A
C562        C766   1.494       .  S
Cr563       O566   1.765       .  S
Cr564       O566   1.771       .  S
Cr565       O566   1.778       .  S
O567       Cr585   1.999       .  S
O567        C575   1.264       .  A
O568       Cr585   1.978       .  S
O568        C569   1.263       .  A
C569        O570   1.270       .  A
C569        C985   1.485       .  S
O570       Cr586   2.013       .  S
O571       Cr586   1.978       .  S
O571        C572   1.259       .  A
C572        O573   1.265       .  A
C572        C925   1.485       .  S
O573       Cr587   2.000       .  S
O574       Cr587   1.992       .  S
O574        C575   1.263       .  A
C575        C945   1.491       .  S
O576       Cr585   1.980       .  S
O576        C584   1.261       .  A
O577       Cr585   2.006       .  S
O577        C578   1.261       .  A
C578        O579   1.258       .  A
C578        C765   1.492       .  S
O579       Cr586   1.982       .  S
O580       Cr586   2.013       .  S
O580        C581   1.266       .  A
C581        O582   1.262       .  A
C581        C732   1.518       .  S
O582       Cr587   1.983       .  S
O583       Cr587   2.013       .  S
O583        C584   1.264       .  A
C584        C870   1.505       .  S
Cr585       O588   1.770       .  S
Cr586       O588   1.773       .  S
Cr587       O588   1.775       .  S
O589       Cr607   1.986       .  S
O589        C597   1.264       .  A
O590       Cr607   2.007       .  S
O590        C591   1.265       .  A
C591        O592   1.262       .  A
C591        C905   1.490       .  S
O592       Cr608   1.986       .  S
O593       Cr608   2.000       .  S
O593        C594   1.266       .  A
C594        O595   1.261       .  A
C594        C922   1.483       .  S
O595       Cr609   1.982       .  S
O596       Cr609   2.003       .  S
O596        C597   1.266       .  A
C597        C915   1.486       .  S
O598       Cr607   2.010       .  S
O598        C606   1.264       .  A
O599       Cr607   1.990       .  S
O599        C600   1.263       .  A
C600        O601   1.263       .  A
C600        C869   1.515       .  S
O601       Cr608   2.014       .  S
O602       Cr608   1.985       .  S
O602        C603   1.261       .  A
C603        O604   1.262       .  A
C603        C700   1.514       .  S
O604       Cr609   2.002       .  S
O605       Cr609   1.979       .  S
O605        C606   1.259       .  A
C606        C768   1.490       .  S
Cr607       O610   1.769       .  S
Cr608       O610   1.770       .  S
Cr609       O610   1.773       .  S
O611       Cr629   1.975       .  S
O611        C619   1.261       .  A
O612       Cr629   1.998       .  S
O612        C613   1.265       .  A
C613        O614   1.261       .  A
C613        C912   1.472       .  S
O614       Cr630   1.974       .  S
O615       Cr630   1.994       .  S
O615        C616   1.263       .  A
C616        O617   1.262       .  A
C616        C975   1.487       .  S
O617       Cr631   1.987       .  S
O618       Cr631   2.006       .  S
O618        C619   1.269       .  A
C619        C892   1.482       .  S
O620       Cr629   2.015       .  S
O620        C628   1.263       .  A
O621       Cr629   1.977       .  S
O621        C622   1.259       .  A
C622        O623   1.262       .  A
C622        C834   1.486       .  S
O623       Cr630   2.002       .  S
O624       Cr630   1.965       .  S
O624        C625   1.257       .  A
C625        O626   1.267       .  A
C625        C697   1.486       .  S
O626       Cr631   2.011       .  S
O627       Cr631   1.977       .  S
O627        C628   1.256       .  A
C628        C868   1.503       .  S
Cr629       O632   1.774       .  S
Cr630       O632   1.773       .  S
Cr631       O632   1.771       .  S
O633       Cr651   1.979       .  S
O633        C641   1.262       .  A
O634       Cr651   2.010       .  S
O634        C635   1.269       .  A
C635        O636   1.264       .  A
C635        C882   1.491       .  S
O636       Cr652   1.987       .  S
O637       Cr652   1.987       .  S
O637        C638   1.263       .  A
C638        O639   1.261       .  A
C638        C935   1.481       .  S
O639       Cr653   1.979       .  S
O640       Cr653   2.009       .  S
O640        C641   1.267       .  A
C641        C902   1.486       .  S
O642       Cr651   2.018       .  S
O642        C650   1.265       .  A
O643       Cr651   1.971       .  S
O643        C644   1.258       .  A
C644        O645   1.257       .  A
C644        C767   1.492       .  S
O645       Cr652   1.993       .  S
O646       Cr652   1.985       .  S
O646        C647   1.263       .  A
C647        O648   1.266       .  A
C647        C699   1.491       .  S
O648       Cr653   2.009       .  S
O649       Cr653   1.982       .  S
O649        C650   1.259       .  A
C650        C802   1.499       .  S
Cr651       O654   1.764       .  S
Cr652       O654   1.775       .  S
Cr653       O654   1.769       .  S
O655       Cr673   2.006       .  S
O655        C663   1.268       .  A
O656       Cr673   1.981       .  S
O656        C657   1.261       .  A
C657        O658   1.267       .  A
C657        C952   1.485       .  S
O658       Cr674   2.007       .  S
O659       Cr674   1.984       .  S
O659        C660   1.261       .  A
C660        O661   1.267       .  A
C660        C885   1.490       .  S
O661       Cr675   2.006       .  S
O662       Cr675   1.984       .  S
O662        C663   1.263       .  A
C663        C895   1.485       .  S
O664       Cr673   1.982       .  S
O664        C672   1.260       .  A
O665       Cr673   2.018       .  S
O665        C666   1.265       .  A
C666        O667   1.260       .  A
C666        C698   1.502       .  S
O667       Cr674   1.984       .  S
O668       Cr674   2.015       .  S
O668        C669   1.266       .  A
C669        O670   1.257       .  A
C669        C835   1.492       .  S
O670       Cr675   1.972       .  S
O671       Cr675   2.013       .  S
O671        C672   1.264       .  A
C672        C799   1.496       .  S
Cr673       O676   1.773       .  S
Cr674       O676   1.776       .  S
Cr675       O676   1.776       .  S
N677        H709   1.041       .  S
N677       C1682   1.354       .  A
N677        C681   1.350       .  A
N678        C685   1.352       .  A
N678       C2686   1.357       .  A
N679        H710   1.043       .  S
N679       C1684   1.351       .  A
N679        C683   1.358       .  A
N680        C687   1.358       .  A
N680       C2688   1.354       .  A
C681        C689   1.388       .  A
C681        C697   1.413       .  A
C682       N1677   1.354       .  A
C682        C698   1.415   1_565  A
C682       C1690   1.387       .  A
C683        C691   1.392       .  A
C683        C700   1.426       .  A
C684       N1679   1.351       .  A
C684        C699   1.413   1_565  A
C684       C1692   1.384       .  A
C685        C697   1.412       .  A
C685        C693   1.380       .  A
C686       N2678   1.357   1_455  A
C686        C700   1.420       .  A
C686       C2694   1.387   1_455  A
C687        C695   1.381       .  A
C687        C698   1.417       .  A
C688       N2680   1.354       .  A
C688       C2696   1.383       .  A
C688        C699   1.418   1_655  A
C689        C690   1.377       .  A
C689        H701   1.082       .  S
C690       C1682   1.387       .  A
C690       H1702   1.082       .  S
C691        C692   1.377       .  A
C691        H703   1.079       .  S
C692       C1684   1.384       .  A
C692       H1704   1.083       .  S
C693        C694   1.367       .  A
C693        H705   1.072       .  S
C694       C2686   1.387       .  A
C694       H2706   1.078       .  S
C695        C696   1.366       .  A
C695        H707   1.074       .  S
C696       C2688   1.383       .  A
C696       H2708   1.072       .  S
H702       C1690   1.082   1_545  S
H704       C1692   1.083   1_545  S
H706       C2694   1.078   1_455  S
H708       C2696   1.072   1_455  S
N711       H2743   1.043       .  S
N711        C716   1.358       .  A
N711       C1715   1.351       .  A
N712        C719   1.354       .  A
N712        C720   1.356       .  A
N713        H744   1.041       .  S
N713        C718   1.350       .  A
N713       C1717   1.353       .  A
N714        C721   1.359       .  A
N714        C722   1.354       .  A
C715       N1711   1.351   1_545  A
C715       C1723   1.384   1_545  A
C715        C731   1.412       .  A
C716        C732   1.424       .  A
C716        C724   1.390       .  A
C717       N1713   1.353   1_545  A
C717       C1725   1.387   1_545  A
C717        C734   1.415       .  A
C718        C733   1.413       .  A
C718        C726   1.388       .  A
C719       C2731   1.417       .  A
C719        C727   1.382       .  A
C720        C734   1.419       .  A
C720        C728   1.382       .  A
C721        C729   1.387       .  A
C721       C2732   1.423       .  A
C722        C730   1.379       .  A
C722        C733   1.416       .  A
C723       C1715   1.384       .  A
C723        C724   1.377       .  A
C723       H1735   1.083       .  S
C724        H736   1.080       .  S
C725       C1717   1.387       .  A
C725        C726   1.377       .  A
C725       H1737   1.082       .  S
C726        H738   1.082       .  S
C727        C728   1.370       .  A
C727       H2739   1.072       .  S
C728        H740   1.073       .  S
C729        C730   1.367       .  A
C729       H2741   1.078       .  S
C730        H742   1.070       .  S
C731       C2719   1.417   1_455  A
C732       C2721   1.423   1_455  A
H735       C1723   1.083   1_545  S
H737       C1725   1.082   1_545  S
H739       C2727   1.072   1_455  S
H741       C2729   1.078   1_455  S
H743       N2711   1.043       .  S
N745        H777   1.041       .  S
N745       C1750   1.353       .  A
N745        C749   1.354       .  A
N746        C753   1.354       .  A
N747        H778   1.041       .  S
N747       C1752   1.353       .  A
N747        C751   1.354       .  A
N748        C755   1.352       .  A
C749        C757   1.384       .  A
C749        C765   1.412       .  A
C750       N1745   1.353   1_545  A
C750        C766   1.419       .  A
C750       C1758   1.390   1_545  A
C751        C759   1.383       .  A
C751        C768   1.411       .  A
C752       N1747   1.353   1_545  A
C752        C767   1.419       .  A
C752       C1760   1.391   1_545  A
C753        C765   1.414       .  A
C753        C761   1.382       .  A
C754        C768   1.412       .  A
C755        C763   1.386       .  A
C755        C766   1.413       .  A
C756        C767   1.415       .  A
C757        C758   1.372       .  A
C757        H769   1.082       .  S
C758       C1750   1.390       .  A
C758       H1770   1.080       .  S
C759        C760   1.369       .  A
C759        H771   1.082       .  S
C760       C1752   1.391       .  A
C760       H1772   1.079       .  S
C761        C762   1.366       .  A
C761        H773   1.074       .  S
C763        C764   1.360       .  A
C763        H775   1.081       .  S
H770       C1758   1.080   1_545  S
H772       C1760   1.079   1_545  S
N779        H811   1.046       .  S
N779        C784   1.356       .  A
N780        C787   1.353       .  A
N780       C2788   1.353       .  A
N781        H812   1.047       .  S
N781        C786   1.355       .  A
N782        C789   1.354       .  A
N782       C2790   1.354       .  A
C783        C799   1.418       .  A
C784        C800   1.417       .  A
C784        C792   1.384       .  A
C785        C802   1.417       .  A
C786        C801   1.420       .  A
C786        C794   1.386       .  A
C787        C799   1.414       .  A
C787        C795   1.386       .  A
C788       N2780   1.353       .  A
C788        C802   1.414   1_655  A
C788       C2796   1.385       .  A
C789        C797   1.386       .  A
C789        C800   1.418       .  A
C790       N2782   1.354       .  A
C790       C2798   1.388       .  A
C790        C801   1.419   1_655  A
C791        C792   1.370       .  A
C792        H804   1.076       .  S
C793        C794   1.374       .  A
C794        H806   1.075       .  S
C795        C796   1.371       .  A
C795        H807   1.082       .  S
C796       C2788   1.385       .  A
C796       H2808   1.082       .  S
C797        C798   1.373       .  A
C797        H809   1.082       .  S
C798       C2790   1.388       .  A
C798       H2810   1.082       .  S
H808       C2796   1.082   1_455  S
H810       C2798   1.082   1_455  S
N813        H845   1.041       .  S
N813        C817   1.351       .  A
N814        C821   1.357       .  A
N814       C1822   1.356       .  A
N815        H846   1.041       .  S
N815        C819   1.354       .  A
N816        C823   1.354       .  A
N816       C1824   1.354       .  A
C817        C825   1.387       .  A
C817        C833   1.411       .  A
C818        C834   1.410       .  A
C819        C827   1.387       .  A
C819        C836   1.417       .  A
C820        C835   1.417       .  A
C821        C833   1.418       .  A
C821        C829   1.382       .  A
C822       N1814   1.356   1_545  A
C822        C836   1.421       .  A
C822       C1830   1.384   1_545  A
C823        C831   1.382       .  A
C823        C834   1.414       .  A
C824       N1816   1.354       .  A
C824       C1832   1.383       .  A
C824        C835   1.415   1_565  A
C825        C826   1.372       .  A
C825        H837   1.082       .  S
C827        C828   1.376       .  A
C827        H839   1.082       .  S
C829        C830   1.367       .  A
C829        H841   1.075       .  S
C830       C1822   1.384       .  A
C830       H1842   1.072       .  S
C831        C832   1.364       .  A
C831        H843   1.073       .  S
C832       C1824   1.383       .  A
C832       H1844   1.073       .  S
H842       C1830   1.072   1_545  S
H844       C1832   1.073   1_545  S
N847        H879   1.042       .  S
N847        C851   1.360       .  A
N848        C855   1.354       .  A
N848       C2856   1.353       .  A
N849        H880   1.037       .  S
N849        C853   1.360       .  A
N850        C857   1.355       .  A
N850       C2858   1.357       .  A
C851        C859   1.382       .  A
C851        C867   1.418       .  A
C852        C868   1.421       .  A
C853        C861   1.387       .  A
C853        C870   1.428       .  A
C854        C869   1.430       .  A
C855        C867   1.415       .  A
C855        C863   1.382       .  A
C856       N2848   1.353   1_455  A
C856        C870   1.425       .  A
C856       C2864   1.393   1_455  A
C857        C865   1.383       .  A
C857        C868   1.420       .  A
C858       N2850   1.357   1_455  A
C858       C2866   1.392   1_455  A
C858        C869   1.431       .  A
C859        C860   1.366       .  A
C859        H871   1.076       .  S
C861        C862   1.367       .  A
C861        H873   1.082       .  S
C863        C864   1.366       .  A
C863        H875   1.082       .  S
C864       C2856   1.393       .  A
C864       H2876   1.077       .  S
C865        C866   1.368       .  A
C865        H877   1.081       .  S
C866       C2858   1.392       .  A
C866       H2878   1.076       .  S
H876       C2864   1.077   1_455  S
H878       C2866   1.077   1_455  S
C881        C882   1.412       .  A
C881        C886   1.408       .  A
C881        F888   1.358       .  S
C882        C883   1.409       .  A
C883        C884   1.395       .  A
C883        F890   1.358       .  S
C884        C885   1.407       .  A
C884        F889   1.358       .  S
C885        C886   1.412       .  A
C886        F887   1.358       .  S
C891        C892   1.409       .  A
C891        C896   1.403       .  A
C891        F898   1.358       .  S
C892        C893   1.406       .  A
C893        C894   1.397       .  A
C893        F900   1.358       .  S
C894        C895   1.408       .  A
C894        F899   1.358       .  S
C895        C896   1.409       .  A
C896        F897   1.358       .  S
C901        C902   1.409       .  A
C901        C906   1.403       .  A
C901        F908   1.358       .  S
C902        C903   1.407       .  A
C903        C904   1.400       .  A
C903        F910   1.358       .  S
C904        C905   1.410       .  A
C904        F909   1.358       .  S
C905        C906   1.410       .  A
C906        F907   1.358       .  S
C911        C912   1.405       .  A
C911        C916   1.397       .  A
C911        F918   1.358       .  S
C912        C913   1.403       .  A
C913        C914   1.399       .  A
C913        F920   1.359       .  S
C914        C915   1.413       .  A
C914        F919   1.358       .  S
C915        C916   1.408       .  A
C916        F917   1.357       .  S
C921        C922   1.408       .  A
C921        C926   1.402       .  A
C921        F928   1.358       .  S
C922        C923   1.407       .  A
C923        C924   1.397       .  A
C923        F930   1.359       .  S
C924        C925   1.408       .  A
C924        F929   1.358       .  S
C925        C926   1.410       .  A
C926        F927   1.358       .  S
C931        C932   1.408       .  A
C931        C936   1.389       .  A
C931        F938   1.359       .  S
C932        C933   1.408       .  A
C933        C934   1.399       .  A
C933        F940   1.358       .  S
C934        C935   1.409       .  A
C934        F939   1.357       .  S
C935        C936   1.409       .  A
C936        F937   1.359       .  S
C941        C942   1.404       .  A
C941        C946   1.398       .  A
C941        F948   1.358       .  S
C942        C943   1.408       .  A
C943        C944   1.403       .  A
C943        F950   1.358       .  S
C944        C945   1.410       .  A
C944        F949   1.358       .  S
C945        C946   1.413       .  A
C946        F947   1.358       .  S
C951        C952   1.408       .  A
C951        C956   1.398       .  A
C951        F958   1.358       .  S
C952        C953   1.409       .  A
C953        C954   1.401       .  A
C953        F960   1.358       .  S
C954        C955   1.407       .  A
C954        F959   1.358       .  S
C955        C956   1.407       .  A
C956        F957   1.359       .  S
C961        C962   1.407       .  A
C961        C966   1.395       .  A
C961        F968   1.358       .  S
C962        C963   1.414       .  A
C963        C964   1.411       .  A
C963        F970   1.358       .  S
C964        C965   1.412       .  A
C964        F969   1.358       .  S
C965        C966   1.411       .  A
C966        F967   1.358       .  S
C971        C972   1.410       .  A
C971        C976   1.403       .  A
C971        F978   1.358       .  S
C972        C973   1.409       .  A
C973        C974   1.397       .  A
C973        F980   1.358       .  S
C974        C975   1.409       .  A
C974        F979   1.359       .  S
C975        C976   1.408       .  A
C976        F977   1.358       .  S
C981        C982   1.410       .  A
C981        C986   1.402       .  A
C981        F988   1.358       .  S
C982        C983   1.411       .  A
C983        C984   1.400       .  A
C983        F990   1.358       .  S
C984        C985   1.407       .  A
C984        F989   1.358       .  S
C985        C986   1.408       .  A
C986        F987   1.358       .  S
C991        C992   1.405       .  A
C991        C996   1.396       .  A
C991        F998   1.358       .  S
C992        C993   1.407       .  A
C993        C994   1.396       .  A
C993       F1000   1.359       .  S
C994        C995   1.406       .  A
C994        F999   1.359       .  S
C995        C996   1.407       .  A
C996        F997   1.358       .  S
O1001     Cr1019   2.001       .  S
O1001      C1009   1.267       .  A
O1002     Cr1019   1.983       .  S
O1002      C1003   1.260       .  A
C1003      O1004   1.264       .  A
C1003      C1472   1.487       .  S
O1004     Cr1020   2.000       .  S
O1005     Cr1020   1.988       .  S
O1005      C1006   1.263       .  A
C1006      O1007   1.267       .  A
C1006      C1482   1.490       .  S
O1007     Cr1021   2.008       .  S
O1008     Cr1021   1.965       .  S
O1008      C1009   1.260       .  A
C1009      C1495   1.473       .  S
O1010     Cr1019   1.976       .  S
O1010      C1018   1.257       .  A
O1011     Cr1019   2.009       .  S
O1011      C1012   1.266       .  A
C1012      O1013   1.260       .  A
C1012      C1233   1.490       .  S
O1013     Cr1020   1.976       .  S
O1014     Cr1020   2.012       .  S
O1014      C1015   1.264       .  A
C1015      O1016   1.260       .  A
C1015      C1333   1.492       .  S
O1016     Cr1021   1.978       .  S
O1017     Cr1021   2.015       .  S
O1017      C1018   1.263       .  A
C1018      C1367   1.502       .  S
Cr1019     O1022   1.773       .  S
Cr1020     O1022   1.772       .  S
Cr1021     O1022   1.771       .  S
O1023     Cr1041   1.978       .  S
O1023      C1031   1.260       .  A
O1024     Cr1041   1.992       .  S
O1024      C1025   1.263       .  A
C1025      O1026   1.261       .  A
C1025      C1492   1.472       .  S
O1026     Cr1042   1.979       .  S
O1027     Cr1042   2.015       .  S
O1027      C1028   1.270       .  A
C1028      O1029   1.262       .  A
C1028      C1462   1.497       .  S
O1029     Cr1043   1.990       .  S
O1030     Cr1043   2.000       .  S
O1030      C1031   1.265       .  A
C1031      C1455   1.480       .  S
O1032     Cr1041   2.012       .  S
O1032      C1040   1.265       .  A
O1033     Cr1041   1.972       .  S
O1033      C1034   1.257       .  A
C1034      O1035   1.268       .  A
C1034      C1300   1.498       .  S
O1035     Cr1042   2.024       .  S
O1036     Cr1042   1.981       .  S
O1036      C1037   1.260       .  A
C1037      O1038   1.265       .  A
C1037      C1336   1.498       .  S
O1038     Cr1043   2.014       .  S
O1039     Cr1043   1.986       .  S
O1039      C1040   1.261       .  A
C1040      C1234   1.497       .  S
Cr1041     O1044   1.774       .  S
Cr1042     O1044   1.773       .  S
Cr1043     O1044   1.773       .  S
O1045     Cr1063   2.004       .  S
O1045      C1053   1.270       .  A
O1046     Cr1063   1.981       .  S
O1046      C1047   1.262       .  A
C1047      O1048   1.265       .  A
C1047      C1442   1.483       .  S
O1048     Cr1064   2.002       .  S
O1049     Cr1064   1.978       .  S
O1049      C1050   1.259       .  A
C1050      O1051   1.260       .  A
C1050      C1432   1.478       .  S
O1051     Cr1065   1.985       .  S
O1052     Cr1065   1.997       .  S
O1052      C1053   1.268       .  A
C1053      C1465   1.496       .  S
O1054     Cr1063   1.978       .  S
O1054      C1062   1.258       .  A
O1055     Cr1063   2.012       .  S
O1055      C1056   1.265       .  A
C1056      O1057   1.257       .  A
C1056      C1301   1.498       .  S
O1057     Cr1064   1.974       .  S
O1058     Cr1064   2.012       .  S
O1058      C1059   1.268       .  A
C1059      O1060   1.266       .  A
C1059      C1231   1.492       .  S
O1060     Cr1065   1.988       .  S
O1061     Cr1065   1.992       .  S
O1061      C1062   1.254       .  A
C1062      C1266   1.494       .  S
Cr1063     O1066   1.765       .  S
Cr1064     O1066   1.771       .  S
Cr1065     O1066   1.778       .  S
O1067     Cr1085   1.999       .  S
O1067      C1075   1.264       .  A
O1068     Cr1085   1.978       .  S
O1068      C1069   1.263       .  A
C1069      O1070   1.270       .  A
C1069      C1485   1.485       .  S
O1070     Cr1086   2.013       .  S
O1071     Cr1086   1.978       .  S
O1071      C1072   1.259       .  A
C1072      O1073   1.265       .  A
C1072      C1425   1.485       .  S
O1073     Cr1087   2.000       .  S
O1074     Cr1087   1.992       .  S
O1074      C1075   1.263       .  A
C1075      C1445   1.491       .  S
O1076     Cr1085   1.980       .  S
O1076      C1084   1.261       .  A
O1077     Cr1085   2.006       .  S
O1077      C1078   1.261       .  A
C1078      O1079   1.258       .  A
C1078      C1265   1.492       .  S
O1079     Cr1086   1.982       .  S
O1080     Cr1086   2.013       .  S
O1080      C1081   1.266       .  A
C1081      O1082   1.262       .  A
C1081      C1232   1.518       .  S
O1082     Cr1087   1.983       .  S
O1083     Cr1087   2.013       .  S
O1083      C1084   1.264       .  A
C1084      C1370   1.505       .  S
Cr1085     O1088   1.770       .  S
Cr1086     O1088   1.773       .  S
Cr1087     O1088   1.775       .  S
O1089     Cr1107   1.986       .  S
O1089      C1097   1.264       .  A
O1090     Cr1107   2.007       .  S
O1090      C1091   1.265       .  A
C1091      O1092   1.262       .  A
C1091      C1405   1.490       .  S
O1092     Cr1108   1.986       .  S
O1093     Cr1108   2.000       .  S
O1093      C1094   1.266       .  A
C1094      O1095   1.261       .  A
C1094      C1422   1.483       .  S
O1095     Cr1109   1.982       .  S
O1096     Cr1109   2.003       .  S
O1096      C1097   1.266       .  A
C1097      C1415   1.486       .  S
O1098     Cr1107   2.010       .  S
O1098      C1106   1.264       .  A
O1099     Cr1107   1.990       .  S
O1099      C1100   1.263       .  A
C1100      O1101   1.263       .  A
C1100      C1369   1.515       .  S
O1101     Cr1108   2.014       .  S
O1102     Cr1108   1.985       .  S
O1102      C1103   1.261       .  A
C1103      O1104   1.262       .  A
C1103      C1200   1.514       .  S
O1104     Cr1109   2.002       .  S
O1105     Cr1109   1.979       .  S
O1105      C1106   1.259       .  A
C1106      C1268   1.490       .  S
Cr1107     O1110   1.769       .  S
Cr1108     O1110   1.770       .  S
Cr1109     O1110   1.773       .  S
O1111     Cr1129   1.974       .  S
O1111      C1119   1.261       .  A
O1112     Cr1129   1.998       .  S
O1112      C1113   1.265       .  A
C1113      O1114   1.261       .  A
C1113      C1412   1.472       .  S
O1114     Cr1130   1.974       .  S
O1115     Cr1130   1.994       .  S
O1115      C1116   1.263       .  A
C1116      O1117   1.262       .  A
C1116      C1475   1.486       .  S
O1117     Cr1131   1.987       .  S
O1118     Cr1131   2.006       .  S
O1118      C1119   1.269       .  A
C1119      C1392   1.482       .  S
O1120     Cr1129   2.015       .  S
O1120      C1128   1.263       .  A
O1121     Cr1129   1.977       .  S
O1121      C1122   1.259       .  A
C1122      O1123   1.262       .  A
C1122      C1334   1.486       .  S
O1123     Cr1130   2.002       .  S
O1124     Cr1130   1.965       .  S
O1124      C1125   1.257       .  A
C1125      O1126   1.267       .  A
C1125      C1197   1.486       .  S
O1126     Cr1131   2.012       .  S
O1127     Cr1131   1.978       .  S
O1127      C1128   1.257       .  A
C1128      C1368   1.503       .  S
Cr1129     O1132   1.774       .  S
Cr1130     O1132   1.773       .  S
Cr1131     O1132   1.771       .  S
O1133     Cr1151   1.979       .  S
O1133      C1141   1.262       .  A
O1134     Cr1151   2.010       .  S
O1134      C1135   1.269       .  A
C1135      O1136   1.264       .  A
C1135      C1382   1.491       .  S
O1136     Cr1152   1.987       .  S
O1137     Cr1152   1.987       .  S
O1137      C1138   1.263       .  A
C1138      O1139   1.261       .  A
C1138      C1435   1.481       .  S
O1139     Cr1153   1.980       .  S
O1140     Cr1153   2.009       .  S
O1140      C1141   1.267       .  A
C1141      C1402   1.486       .  S
O1142     Cr1151   2.018       .  S
O1142      C1150   1.265       .  A
O1143     Cr1151   1.971       .  S
O1143      C1144   1.258       .  A
C1144      O1145   1.257       .  A
C1144      C1267   1.492       .  S
O1145     Cr1152   1.993       .  S
O1146     Cr1152   1.985       .  S
O1146      C1147   1.263       .  A
C1147      O1148   1.266       .  A
C1147      C1199   1.491       .  S
O1148     Cr1153   2.009       .  S
O1149     Cr1153   1.982       .  S
O1149      C1150   1.259       .  A
C1150      C1302   1.499       .  S
Cr1151     O1154   1.764       .  S
Cr1152     O1154   1.775       .  S
Cr1153     O1154   1.769       .  S
O1155     Cr1173   2.006       .  S
O1155      C1163   1.268       .  A
O1156     Cr1173   1.981       .  S
O1156      C1157   1.261       .  A
C1157      O1158   1.267       .  A
C1157      C1452   1.485       .  S
O1158     Cr1174   2.007       .  S
O1159     Cr1174   1.984       .  S
O1159      C1160   1.261       .  A
C1160      O1161   1.267       .  A
C1160      C1385   1.490       .  S
O1161     Cr1175   2.006       .  S
O1162     Cr1175   1.984       .  S
O1162      C1163   1.263       .  A
C1163      C1395   1.485       .  S
O1164     Cr1173   1.982       .  S
O1164      C1172   1.260       .  A
O1165     Cr1173   2.018       .  S
O1165      C1166   1.265       .  A
C1166      O1167   1.260       .  A
C1166      C1198   1.502       .  S
O1167     Cr1174   1.984       .  S
O1168     Cr1174   2.015       .  S
O1168      C1169   1.266       .  A
C1169      O1170   1.257       .  A
C1169      C1335   1.492       .  S
O1170     Cr1175   1.972       .  S
O1171     Cr1175   2.013       .  S
O1171      C1172   1.264       .  A
C1172      C1299   1.496       .  S
Cr1173     O1176   1.773       .  S
Cr1174     O1176   1.776       .  S
Cr1175     O1176   1.776       .  S
N1177      H1209   1.041       .  S
N1177      C1181   1.350       .  A
N1178      C1185   1.352       .  A
N1178      C3186   1.357       .  A
N1179      H1210   1.043       .  S
N1179      C1183   1.358       .  A
N1180      C1187   1.358       .  A
N1180      C3188   1.354       .  A
C1181      C1189   1.388       .  A
C1181      C1197   1.413       .  A
C1182      C1198   1.415       .  A
C1183      C1191   1.392       .  A
C1183      C1200   1.426       .  A
C1184      C1199   1.413       .  A
C1185      C1197   1.412       .  A
C1185      C1193   1.380       .  A
C1186      N3178   1.357   1_455  A
C1186      C1200   1.420       .  A
C1186      C3194   1.387   1_455  A
C1187      C1195   1.381       .  A
C1187      C1198   1.417       .  A
C1188      N3180   1.354       .  A
C1188      C3196   1.383       .  A
C1188      C1199   1.418   1_655  A
C1189      C1190   1.377       .  A
C1189      H1201   1.082       .  S
C1191      C1192   1.377       .  A
C1191      H1203   1.079       .  S
C1193      C1194   1.367       .  A
C1193      H1205   1.072       .  S
C1194      C3186   1.387       .  A
C1194      H3206   1.078       .  S
C1195      C1196   1.366       .  A
C1195      H1207   1.074       .  S
C1196      C3188   1.383       .  A
C1196      H3208   1.072       .  S
H1206      C3194   1.078   1_455  S
H1208      C3196   1.072   1_455  S
N1211      H3243   1.043       .  S
N1211      C1216   1.358       .  A
N1212      C1219   1.354       .  A
N1212      C1220   1.356       .  A
N1213      H1244   1.041       .  S
N1213      C1218   1.350       .  A
N1214      C1221   1.359       .  A
N1214      C1222   1.354       .  A
C1215      C1231   1.412       .  A
C1216      C1232   1.424       .  A
C1216      C1224   1.390       .  A
C1217      C1234   1.415       .  A
C1218      C1233   1.413       .  A
C1218      C1226   1.388       .  A
C1219      C3231   1.417       .  A
C1219      C1227   1.382       .  A
C1220      C1234   1.419       .  A
C1220      C1228   1.382       .  A
C1221      C1229   1.387       .  A
C1221      C3232   1.423       .  A
C1222      C1230   1.379       .  A
C1222      C1233   1.416       .  A
C1223      C1224   1.377       .  A
C1224      H1236   1.080       .  S
C1225      C1226   1.377       .  A
C1226      H1238   1.082       .  S
C1227      C1228   1.370       .  A
C1227      H3239   1.072       .  S
C1228      H1240   1.073       .  S
C1229      C1230   1.366       .  A
C1229      H3241   1.078       .  S
C1230      H1242   1.070       .  S
C1231      C3219   1.417   1_455  A
C1232      C3221   1.423   1_455  A
H1239      C3227   1.072   1_455  S
H1241      C3229   1.078   1_455  S
H1243      N3211   1.043       .  S
N1245      H1277   1.041       .  S
N1245      C1249   1.354       .  A
N1246      C1253   1.354       .  A
N1246      C1754   1.354       .  A
N1247      H1278   1.041       .  S
N1247      C1251   1.354       .  A
N1248      C1255   1.352       .  A
N1248      C1756   1.352       .  A
C1249      C1257   1.384       .  A
C1249      C1265   1.412       .  A
C1250      C1266   1.419       .  A
C1251      C1259   1.383       .  A
C1251      C1268   1.411       .  A
C1252      C1267   1.419       .  A
C1253      C1265   1.414       .  A
C1253      C1261   1.382       .  A
C1254      N1746   1.354       .  A
C1254      C1268   1.412   1_556  A
C1254      C1762   1.381       .  A
C1255      C1263   1.386       .  A
C1255      C1266   1.413       .  A
C1256      N1748   1.352       .  A
C1256      C1764   1.387       .  A
C1256      C1267   1.415   1_556  A
C1257      C1258   1.372       .  A
C1257      H1269   1.082       .  S
C1259      C1260   1.369       .  A
C1259      H1271   1.082       .  S
C1261      C1262   1.366       .  A
C1261      H1273   1.074       .  S
C1262      C1754   1.381       .  A
C1262      H1774   1.074       .  S
C1263      C1264   1.360       .  A
C1263      H1275   1.081       .  S
C1264      C1756   1.387       .  A
C1264      H1776   1.081       .  S
H1274      C1762   1.074   1_554  S
H1276      C1764   1.081   1_554  S
N1279      H1311   1.046       .  S
N1279      C1284   1.356       .  A
N1279      C1783   1.355       .  A
N1280      C1287   1.353       .  A
N1280      C3288   1.353       .  A
N1281      H1312   1.046       .  S
N1281      C1286   1.355       .  A
N1281      C1785   1.357       .  A
N1282      C1289   1.354       .  A
N1282      C3290   1.354       .  A
C1283      N1779   1.355   1_554  A
C1283      C1791   1.384   1_554  A
C1283      C1299   1.418       .  A
C1284      C1300   1.417       .  A
C1284      C1292   1.384       .  A
C1285      N1781   1.357       .  A
C1285      C1793   1.383       .  A
C1285      C1302   1.417   1_556  A
C1286      C1301   1.420       .  A
C1286      C1294   1.386       .  A
C1287      C1299   1.414       .  A
C1287      C1295   1.386       .  A
C1288      N3280   1.353       .  A
C1288      C1302   1.414   1_655  A
C1288      C3296   1.385       .  A
C1289      C1297   1.386       .  A
C1289      C1300   1.418       .  A
C1290      N3282   1.354       .  A
C1290      C3298   1.388       .  A
C1290      C1301   1.419   1_655  A
C1291      C1783   1.384       .  A
C1291      C1292   1.370       .  A
C1291      H1803   1.073       .  S
C1292      H1304   1.076       .  S
C1293      C1785   1.383       .  A
C1293      C1294   1.374       .  A
C1293      H1805   1.077       .  S
C1294      H1306   1.075       .  S
C1295      C1296   1.371       .  A
C1295      H1307   1.082       .  S
C1296      C3288   1.385       .  A
C1296      H3308   1.082       .  S
C1297      C1298   1.373       .  A
C1297      H1309   1.082       .  S
C1298      C3290   1.388       .  A
C1298      H3310   1.082       .  S
H1303      C1791   1.073   1_554  S
H1305      C1793   1.077   1_554  S
H1308      C3296   1.082   1_455  S
H1310      C3298   1.082   1_455  S
N1313      H1345   1.041       .  S
N1313      C1818   1.351       .  A
N1313      C1317   1.351       .  A
N1314      C1321   1.357       .  A
N1315      H1346   1.041       .  S
N1315      C1820   1.354       .  A
N1315      C1319   1.354       .  A
N1316      C1323   1.354       .  A
C1317      C1325   1.387       .  A
C1317      C1333   1.411       .  A
C1318      N1813   1.351       .  A
C1318      C1334   1.410   1_556  A
C1318      C1826   1.387       .  A
C1319      C1327   1.387       .  A
C1319      C1336   1.417       .  A
C1320      N1815   1.354   1_554  A
C1320      C1335   1.417       .  A
C1320      C1828   1.387   1_554  A
C1321      C1333   1.418       .  A
C1321      C1329   1.382       .  A
C1322      C1336   1.421       .  A
C1323      C1331   1.382       .  A
C1323      C1334   1.414       .  A
C1324      C1335   1.415       .  A
C1325      C1326   1.372       .  A
C1325      H1337   1.082       .  S
C1326      C1818   1.387       .  A
C1326      H1838   1.082       .  S
C1327      C1328   1.376       .  A
C1327      H1339   1.082       .  S
C1328      C1820   1.387       .  A
C1328      H1840   1.082       .  S
C1329      C1330   1.367       .  A
C1329      H1341   1.075       .  S
C1331      C1332   1.364       .  A
C1331      H1343   1.073       .  S
H1338      C1826   1.082   1_554  S
H1340      C1828   1.082   1_554  S
N1347      H1379   1.042       .  S
N1347      C1852   1.357       .  A
N1347      C1351   1.360       .  A
N1348      C1355   1.354       .  A
N1348      C3356   1.353       .  A
N1349      H1380   1.037       .  S
N1349      C1854   1.362       .  A
N1349      C1353   1.360       .  A
N1350      C1357   1.355       .  A
N1350      C3358   1.357       .  A
C1351      C1359   1.382       .  A
C1351      C1367   1.418       .  A
C1352      N1847   1.358       .  A
C1352      C1368   1.421   1_556  A
C1352      C1860   1.384       .  A
C1353      C1361   1.387       .  A
C1353      C1370   1.428       .  A
C1354      N1849   1.362       .  A
C1354      C1369   1.430   1_556  A
C1354      C1862   1.387       .  A
C1355      C1367   1.415       .  A
C1355      C1363   1.382       .  A
C1356      N3348   1.353   1_455  A
C1356      C1370   1.425       .  A
C1356      C3364   1.393   1_455  A
C1357      C1365   1.383       .  A
C1357      C1368   1.420       .  A
C1358      N3350   1.357   1_455  A
C1358      C3366   1.392   1_455  A
C1358      C1369   1.431       .  A
C1359      C1360   1.366       .  A
C1359      H1371   1.076       .  S
C1360      C1852   1.384       .  A
C1360      H1872   1.072       .  S
C1361      C1362   1.367       .  A
C1361      H1373   1.082       .  S
C1362      C1854   1.387       .  A
C1362      H1874   1.081       .  S
C1363      C1364   1.366       .  A
C1363      H1375   1.082       .  S
C1364      C3356   1.393       .  A
C1364      H3376   1.077       .  S
C1365      C1366   1.368       .  A
C1365      H1377   1.081       .  S
C1366      C3358   1.392       .  A
C1366      H3378   1.076       .  S
H1372      C1860   1.072   1_554  S
H1374      C1862   1.081   1_554  S
H1376      C3364   1.077   1_455  S
H1378      C3366   1.076   1_455  S
C1381      C1382   1.412       .  A
C1381      C1386   1.408       .  A
C1381      F1388   1.358       .  S
C1382      C1383   1.409       .  A
C1383      C1384   1.395       .  A
C1383      F1390   1.358       .  S
C1384      C1385   1.407       .  A
C1384      F1389   1.358       .  S
C1385      C1386   1.412       .  A
C1386      F1387   1.358       .  S
C1391      C1392   1.409       .  A
C1391      C1396   1.403       .  A
C1391      F1398   1.358       .  S
C1392      C1393   1.406       .  A
C1393      C1394   1.397       .  A
C1393      F1400   1.358       .  S
C1394      C1395   1.408       .  A
C1394      F1399   1.358       .  S
C1395      C1396   1.409       .  A
C1396      F1397   1.358       .  S
C1401      C1402   1.409       .  A
C1401      C1406   1.403       .  A
C1401      F1408   1.358       .  S
C1402      C1403   1.407       .  A
C1403      C1404   1.400       .  A
C1403      F1410   1.358       .  S
C1404      C1405   1.410       .  A
C1404      F1409   1.358       .  S
C1405      C1406   1.409       .  A
C1406      F1407   1.358       .  S
C1411      C1412   1.405       .  A
C1411      C1416   1.397       .  A
C1411      F1418   1.358       .  S
C1412      C1413   1.403       .  A
C1413      C1414   1.399       .  A
C1413      F1420   1.359       .  S
C1414      C1415   1.413       .  A
C1414      F1419   1.358       .  S
C1415      C1416   1.408       .  A
C1416      F1417   1.357       .  S
C1421      C1422   1.408       .  A
C1421      C1426   1.402       .  A
C1421      F1428   1.358       .  S
C1422      C1423   1.407       .  A
C1423      C1424   1.397       .  A
C1423      F1430   1.359       .  S
C1424      C1425   1.408       .  A
C1424      F1429   1.358       .  S
C1425      C1426   1.410       .  A
C1426      F1427   1.358       .  S
C1431      C1432   1.408       .  A
C1431      C1436   1.389       .  A
C1431      F1438   1.359       .  S
C1432      C1433   1.408       .  A
C1433      C1434   1.399       .  A
C1433      F1440   1.358       .  S
C1434      C1435   1.409       .  A
C1434      F1439   1.357       .  S
C1435      C1436   1.409       .  A
C1436      F1437   1.359       .  S
C1441      C1442   1.404       .  A
C1441      C1446   1.398       .  A
C1441      F1448   1.358       .  S
C1442      C1443   1.408       .  A
C1443      C1444   1.403       .  A
C1443      F1450   1.358       .  S
C1444      C1445   1.410       .  A
C1444      F1449   1.358       .  S
C1445      C1446   1.414       .  A
C1446      F1447   1.358       .  S
C1451      C1452   1.408       .  A
C1451      C1456   1.398       .  A
C1451      F1458   1.358       .  S
C1452      C1453   1.409       .  A
C1453      C1454   1.401       .  A
C1453      F1460   1.358       .  S
C1454      C1455   1.407       .  A
C1454      F1459   1.358       .  S
C1455      C1456   1.407       .  A
C1456      F1457   1.359       .  S
C1461      C1462   1.407       .  A
C1461      C1466   1.395       .  A
C1461      F1468   1.358       .  S
C1462      C1463   1.414       .  A
C1463      C1464   1.411       .  A
C1463      F1470   1.358       .  S
C1464      C1465   1.412       .  A
C1464      F1469   1.358       .  S
C1465      C1466   1.411       .  A
C1466      F1467   1.358       .  S
C1471      C1472   1.410       .  A
C1471      C1476   1.403       .  A
C1471      F1478   1.358       .  S
C1472      C1473   1.409       .  A
C1473      C1474   1.397       .  A
C1473      F1480   1.358       .  S
C1474      C1475   1.409       .  A
C1474      F1479   1.359       .  S
C1475      C1476   1.408       .  A
C1476      F1477   1.358       .  S
C1481      C1482   1.410       .  A
C1481      C1486   1.402       .  A
C1481      F1488   1.358       .  S
C1482      C1483   1.411       .  A
C1483      C1484   1.400       .  A
C1483      F1490   1.358       .  S
C1484      C1485   1.407       .  A
C1484      F1489   1.358       .  S
C1485      C1486   1.408       .  A
C1486      F1487   1.358       .  S
C1491      C1492   1.405       .  A
C1491      C1496   1.396       .  A
C1491      F1498   1.358       .  S
C1492      C1493   1.407       .  A
C1493      C1494   1.396       .  A
C1493      F1500   1.359       .  S
C1494      C1495   1.406       .  A
C1494      F1499   1.359       .  S
C1495      C1496   1.407       .  A
C1496      F1497   1.358       .  S
O1501     Cr1519   2.002       .  S
O1501      C1509   1.267       .  A
O1502     Cr1519   1.983       .  S
O1502      C1503   1.260       .  A
C1503      O1504   1.264       .  A
C1503      C1972   1.487       .  S
O1504     Cr1520   2.000       .  S
O1505     Cr1520   1.988       .  S
O1505      C1506   1.263       .  A
C1506      O1507   1.267       .  A
C1506      C1982   1.490       .  S
O1507     Cr1521   2.008       .  S
O1508     Cr1521   1.965       .  S
O1508      C1509   1.260       .  A
C1509      C1995   1.473       .  S
O1510     Cr1519   1.976       .  S
O1510      C1518   1.257       .  A
O1511     Cr1519   2.009       .  S
O1511      C1512   1.266       .  A
C1512      O1513   1.260       .  A
C1512      C1733   1.490       .  S
O1513     Cr1520   1.976       .  S
O1514     Cr1520   2.012       .  S
O1514      C1515   1.264       .  A
C1515      O1516   1.260       .  A
C1515      C1833   1.492       .  S
O1516     Cr1521   1.978       .  S
O1517     Cr1521   2.015       .  S
O1517      C1518   1.263       .  A
C1518      C1867   1.502       .  S
Cr1519     O1522   1.773       .  S
Cr1520     O1522   1.772       .  S
Cr1521     O1522   1.771       .  S
O1523     Cr1541   1.978       .  S
O1523      C1531   1.260       .  A
O1524     Cr1541   1.992       .  S
O1524      C1525   1.264       .  A
C1525      O1526   1.261       .  A
C1525      C1992   1.473       .  S
O1526     Cr1542   1.979       .  S
O1527     Cr1542   2.015       .  S
O1527      C1528   1.270       .  A
C1528      O1529   1.262       .  A
C1528      C1962   1.497       .  S
O1529     Cr1543   1.989       .  S
O1530     Cr1543   2.000       .  S
O1530      C1531   1.265       .  A
C1531      C1955   1.480       .  S
O1532     Cr1541   2.012       .  S
O1532      C1540   1.265       .  A
O1533     Cr1541   1.972       .  S
O1533      C1534   1.257       .  A
C1534      O1535   1.268       .  A
C1534      C1800   1.498       .  S
O1535     Cr1542   2.024       .  S
O1536     Cr1542   1.981       .  S
O1536      C1537   1.260       .  A
C1537      O1538   1.265       .  A
C1537      C1836   1.498       .  S
O1538     Cr1543   2.014       .  S
O1539     Cr1543   1.986       .  S
O1539      C1540   1.261       .  A
C1540      C1734   1.498       .  S
Cr1541     O1544   1.774       .  S
Cr1542     O1544   1.773       .  S
Cr1543     O1544   1.773       .  S
O1545     Cr1563   2.004       .  S
O1545      C1553   1.269       .  A
O1546     Cr1563   1.981       .  S
O1546      C1547   1.262       .  A
C1547      O1548   1.265       .  A
C1547      C1942   1.483       .  S
O1548     Cr1564   2.002       .  S
O1549     Cr1564   1.978       .  S
O1549      C1550   1.259       .  A
C1550      O1551   1.260       .  A
C1550      C1932   1.478       .  S
O1551     Cr1565   1.985       .  S
O1552     Cr1565   1.997       .  S
O1552      C1553   1.268       .  A
C1553      C1965   1.496       .  S
O1554     Cr1563   1.978       .  S
O1554      C1562   1.258       .  A
O1555     Cr1563   2.012       .  S
O1555      C1556   1.265       .  A
C1556      O1557   1.257       .  A
C1556      C1801   1.498       .  S
O1557     Cr1564   1.974       .  S
O1558     Cr1564   2.012       .  S
O1558      C1559   1.268       .  A
C1559      O1560   1.266       .  A
C1559      C1731   1.492       .  S
O1560     Cr1565   1.988       .  S
O1561     Cr1565   1.991       .  S
O1561      C1562   1.254       .  A
C1562      C1766   1.494       .  S
Cr1563     O1566   1.765       .  S
Cr1564     O1566   1.771       .  S
Cr1565     O1566   1.778       .  S
O1567     Cr1585   1.999       .  S
O1567      C1575   1.264       .  A
O1568     Cr1585   1.978       .  S
O1568      C1569   1.263       .  A
C1569      O1570   1.270       .  A
C1569      C1985   1.485       .  S
O1570     Cr1586   2.013       .  S
O1571     Cr1586   1.979       .  S
O1571      C1572   1.259       .  A
C1572      O1573   1.265       .  A
C1572      C1925   1.485       .  S
O1573     Cr1587   2.000       .  S
O1574     Cr1587   1.992       .  S
O1574      C1575   1.263       .  A
C1575      C1945   1.492       .  S
O1576     Cr1585   1.980       .  S
O1576      C1584   1.261       .  A
O1577     Cr1585   2.006       .  S
O1577      C1578   1.261       .  A
C1578      O1579   1.258       .  A
C1578      C1765   1.492       .  S
O1579     Cr1586   1.982       .  S
O1580     Cr1586   2.013       .  S
O1580      C1581   1.266       .  A
C1581      O1582   1.262       .  A
C1581      C1732   1.518       .  S
O1582     Cr1587   1.983       .  S
O1583     Cr1587   2.013       .  S
O1583      C1584   1.264       .  A
C1584      C1870   1.505       .  S
Cr1585     O1588   1.770       .  S
Cr1586     O1588   1.773       .  S
Cr1587     O1588   1.775       .  S
O1589     Cr1607   1.986       .  S
O1589      C1597   1.264       .  A
O1590     Cr1607   2.007       .  S
O1590      C1591   1.265       .  A
C1591      O1592   1.262       .  A
C1591      C1905   1.490       .  S
O1592     Cr1608   1.986       .  S
O1593     Cr1608   2.000       .  S
O1593      C1594   1.266       .  A
C1594      O1595   1.261       .  A
C1594      C1922   1.483       .  S
O1595     Cr1609   1.982       .  S
O1596     Cr1609   2.003       .  S
O1596      C1597   1.266       .  A
C1597      C1915   1.486       .  S
O1598     Cr1607   2.010       .  S
O1598      C1606   1.264       .  A
O1599     Cr1607   1.990       .  S
O1599      C1600   1.263       .  A
C1600      O1601   1.263       .  A
C1600      C1869   1.515       .  S
O1601     Cr1608   2.014       .  S
O1602     Cr1608   1.985       .  S
O1602      C1603   1.261       .  A
C1603      O1604   1.262       .  A
C1603      C1700   1.514       .  S
O1604     Cr1609   2.002       .  S
O1605     Cr1609   1.979       .  S
O1605      C1606   1.259       .  A
C1606      C1768   1.490       .  S
Cr1607     O1610   1.769       .  S
Cr1608     O1610   1.770       .  S
Cr1609     O1610   1.773       .  S
O1611     Cr1629   1.975       .  S
O1611      C1619   1.261       .  A
O1612     Cr1629   1.998       .  S
O1612      C1613   1.265       .  A
C1613      O1614   1.261       .  A
C1613      C1912   1.472       .  S
O1614     Cr1630   1.974       .  S
O1615     Cr1630   1.994       .  S
O1615      C1616   1.263       .  A
C1616      O1617   1.262       .  A
C1616      C1975   1.487       .  S
O1617     Cr1631   1.987       .  S
O1618     Cr1631   2.006       .  S
O1618      C1619   1.269       .  A
C1619      C1892   1.482       .  S
O1620     Cr1629   2.015       .  S
O1620      C1628   1.263       .  A
O1621     Cr1629   1.977       .  S
O1621      C1622   1.259       .  A
C1622      O1623   1.262       .  A
C1622      C1834   1.486       .  S
O1623     Cr1630   2.002       .  S
O1624     Cr1630   1.965       .  S
O1624      C1625   1.257       .  A
C1625      O1626   1.267       .  A
C1625      C1697   1.486       .  S
O1626     Cr1631   2.011       .  S
O1627     Cr1631   1.977       .  S
O1627      C1628   1.256       .  A
C1628      C1868   1.503       .  S
Cr1629     O1632   1.774       .  S
Cr1630     O1632   1.773       .  S
Cr1631     O1632   1.771       .  S
O1633     Cr1651   1.979       .  S
O1633      C1641   1.262       .  A
O1634     Cr1651   2.009       .  S
O1634      C1635   1.269       .  A
C1635      O1636   1.264       .  A
C1635      C1882   1.491       .  S
O1636     Cr1652   1.987       .  S
O1637     Cr1652   1.987       .  S
O1637      C1638   1.263       .  A
C1638      O1639   1.261       .  A
C1638      C1935   1.481       .  S
O1639     Cr1653   1.979       .  S
O1640     Cr1653   2.009       .  S
O1640      C1641   1.267       .  A
C1641      C1902   1.486       .  S
O1642     Cr1651   2.018       .  S
O1642      C1650   1.265       .  A
O1643     Cr1651   1.971       .  S
O1643      C1644   1.258       .  A
C1644      O1645   1.257       .  A
C1644      C1767   1.492       .  S
O1645     Cr1652   1.993       .  S
O1646     Cr1652   1.985       .  S
O1646      C1647   1.263       .  A
C1647      O1648   1.266       .  A
C1647      C1699   1.491       .  S
O1648     Cr1653   2.009       .  S
O1649     Cr1653   1.982       .  S
O1649      C1650   1.259       .  A
C1650      C1802   1.499       .  S
Cr1651     O1654   1.764       .  S
Cr1652     O1654   1.775       .  S
Cr1653     O1654   1.769       .  S
O1655     Cr1673   2.006       .  S
O1655      C1663   1.268       .  A
O1656     Cr1673   1.981       .  S
O1656      C1657   1.261       .  A
C1657      O1658   1.267       .  A
C1657      C1952   1.485       .  S
O1658     Cr1674   2.007       .  S
O1659     Cr1674   1.984       .  S
O1659      C1660   1.261       .  A
C1660      O1661   1.267       .  A
C1660      C1885   1.490       .  S
O1661     Cr1675   2.006       .  S
O1662     Cr1675   1.984       .  S
O1662      C1663   1.263       .  A
C1663      C1895   1.485       .  S
O1664     Cr1673   1.982       .  S
O1664      C1672   1.260       .  A
O1665     Cr1673   2.018       .  S
O1665      C1666   1.265       .  A
C1666      O1667   1.260       .  A
C1666      C1698   1.502       .  S
O1667     Cr1674   1.984       .  S
O1668     Cr1674   2.015       .  S
O1668      C1669   1.266       .  A
C1669      O1670   1.257       .  A
C1669      C1835   1.492       .  S
O1670     Cr1675   1.972       .  S
O1671     Cr1675   2.013       .  S
O1671      C1672   1.264       .  A
C1672      C1799   1.496       .  S
Cr1673     O1676   1.773       .  S
Cr1674     O1676   1.776       .  S
Cr1675     O1676   1.776       .  S
N1677      H1709   1.041       .  S
N1677      C1681   1.350       .  A
N1678      C1685   1.352       .  A
N1678      C3686   1.357       .  A
N1679      H1710   1.043       .  S
N1679      C1683   1.358       .  A
N1680      C1687   1.358       .  A
N1680      C3688   1.354       .  A
C1681      C1689   1.388       .  A
C1681      C1697   1.413       .  A
C1682      C1698   1.415       .  A
C1683      C1691   1.392       .  A
C1683      C1700   1.426       .  A
C1684      C1699   1.413       .  A
C1685      C1697   1.412       .  A
C1685      C1693   1.380       .  A
C1686      N3678   1.357   1_455  A
C1686      C1700   1.420       .  A
C1686      C3694   1.387   1_455  A
C1687      C1695   1.381       .  A
C1687      C1698   1.417       .  A
C1688      N3680   1.354       .  A
C1688      C3696   1.383       .  A
C1688      C1699   1.418   1_655  A
C1689      C1690   1.377       .  A
C1689      H1701   1.082       .  S
C1691      C1692   1.377       .  A
C1691      H1703   1.079       .  S
C1693      C1694   1.367       .  A
C1693      H1705   1.072       .  S
C1694      C3686   1.387       .  A
C1694      H3706   1.078       .  S
C1695      C1696   1.366       .  A
C1695      H1707   1.074       .  S
C1696      C3688   1.383       .  A
C1696      H3708   1.072       .  S
H1706      C3694   1.078   1_455  S
H1708      C3696   1.072   1_455  S
N1711      H3743   1.043       .  S
N1711      C1716   1.358       .  A
N1712      C1719   1.354       .  A
N1712      C1720   1.356       .  A
N1713      H1744   1.041       .  S
N1713      C1718   1.350       .  A
N1714      C1721   1.359       .  A
N1714      C1722   1.354       .  A
C1715      C1731   1.412       .  A
C1716      C1732   1.424       .  A
C1716      C1724   1.390       .  A
C1717      C1734   1.415       .  A
C1718      C1733   1.413       .  A
C1718      C1726   1.388       .  A
C1719      C3731   1.417       .  A
C1719      C1727   1.382       .  A
C1720      C1734   1.419       .  A
C1720      C1728   1.382       .  A
C1721      C1729   1.387       .  A
C1721      C3732   1.423       .  A
C1722      C1730   1.379       .  A
C1722      C1733   1.416       .  A
C1723      C1724   1.377       .  A
C1724      H1736   1.080       .  S
C1725      C1726   1.377       .  A
C1726      H1738   1.082       .  S
C1727      C1728   1.370       .  A
C1727      H3739   1.072       .  S
C1728      H1740   1.073       .  S
C1729      C1730   1.366       .  A
C1729      H3741   1.078       .  S
C1730      H1742   1.070       .  S
C1731      C3719   1.417   1_455  A
C1732      C3721   1.423   1_455  A
H1739      C3727   1.072   1_455  S
H1741      C3729   1.078   1_455  S
H1743      N3711   1.043       .  S
N1745      H1777   1.041       .  S
N1745      C1749   1.354       .  A
N1746      C1753   1.354       .  A
N1747      H1778   1.041       .  S
N1747      C1751   1.354       .  A
N1748      C1755   1.352       .  A
C1749      C1757   1.384       .  A
C1749      C1765   1.412       .  A
C1750      C1766   1.419       .  A
C1751      C1759   1.383       .  A
C1751      C1768   1.411       .  A
C1752      C1767   1.419       .  A
C1753      C1765   1.414       .  A
C1753      C1761   1.382       .  A
C1754      C1768   1.412       .  A
C1755      C1763   1.386       .  A
C1755      C1766   1.413       .  A
C1756      C1767   1.415       .  A
C1757      C1758   1.372       .  A
C1757      H1769   1.082       .  S
C1759      C1760   1.369       .  A
C1759      H1771   1.082       .  S
C1761      C1762   1.366       .  A
C1761      H1773   1.074       .  S
C1763      C1764   1.360       .  A
C1763      H1775   1.081       .  S
N1779      H1811   1.046       .  S
N1779      C1784   1.356       .  A
N1780      C1787   1.353       .  A
N1780      C3788   1.353       .  A
N1781      H1812   1.047       .  S
N1781      C1786   1.355       .  A
N1782      C1789   1.354       .  A
N1782      C3790   1.354       .  A
C1783      C1799   1.418       .  A
C1784      C1800   1.417       .  A
C1784      C1792   1.384       .  A
C1785      C1802   1.417       .  A
C1786      C1801   1.420       .  A
C1786      C1794   1.386       .  A
C1787      C1799   1.414       .  A
C1787      C1795   1.386       .  A
C1788      N3780   1.353       .  A
C1788      C1802   1.414   1_655  A
C1788      C3796   1.385       .  A
C1789      C1797   1.386       .  A
C1789      C1800   1.417       .  A
C1790      N3782   1.354       .  A
C1790      C3798   1.388       .  A
C1790      C1801   1.419   1_655  A
C1791      C1792   1.370       .  A
C1792      H1804   1.076       .  S
C1793      C1794   1.374       .  A
C1794      H1806   1.075       .  S
C1795      C1796   1.371       .  A
C1795      H1807   1.082       .  S
C1796      C3788   1.385       .  A
C1796      H3808   1.082       .  S
C1797      C1798   1.373       .  A
C1797      H1809   1.082       .  S
C1798      C3790   1.388       .  A
C1798      H3810   1.082       .  S
H1808      C3796   1.082   1_455  S
H1810      C3798   1.082   1_455  S
N1813      H1845   1.041       .  S
N1813      C1817   1.351       .  A
N1814      C1821   1.357       .  A
N1815      H1846   1.041       .  S
N1815      C1819   1.354       .  A
N1816      C1823   1.354       .  A
C1817      C1825   1.387       .  A
C1817      C1833   1.411       .  A
C1818      C1834   1.410       .  A
C1819      C1827   1.387       .  A
C1819      C1836   1.417       .  A
C1820      C1835   1.417       .  A
C1821      C1833   1.418       .  A
C1821      C1829   1.382       .  A
C1822      C1836   1.421       .  A
C1823      C1831   1.382       .  A
C1823      C1834   1.414       .  A
C1824      C1835   1.415       .  A
C1825      C1826   1.372       .  A
C1825      H1837   1.082       .  S
C1827      C1828   1.376       .  A
C1827      H1839   1.082       .  S
C1829      C1830   1.367       .  A
C1829      H1841   1.075       .  S
C1831      C1832   1.364       .  A
C1831      H1843   1.073       .  S
N1847      H1879   1.042       .  S
N1847      C1851   1.360       .  A
N1848      C1855   1.354       .  A
N1848      C3856   1.353       .  A
N1849      H1880   1.037       .  S
N1849      C1853   1.360       .  A
N1850      C1857   1.355       .  A
N1850      C3858   1.357       .  A
C1851      C1859   1.382       .  A
C1851      C1867   1.418       .  A
C1852      C1868   1.421       .  A
C1853      C1861   1.387       .  A
C1853      C1870   1.428       .  A
C1854      C1869   1.430       .  A
C1855      C1867   1.415       .  A
C1855      C1863   1.382       .  A
C1856      N3848   1.353   1_455  A
C1856      C1870   1.425       .  A
C1856      C3864   1.393   1_455  A
C1857      C1865   1.383       .  A
C1857      C1868   1.420       .  A
C1858      N3850   1.357   1_455  A
C1858      C3866   1.392   1_455  A
C1858      C1869   1.431       .  A
C1859      C1860   1.366       .  A
C1859      H1871   1.076       .  S
C1861      C1862   1.367       .  A
C1861      H1873   1.082       .  S
C1863      C1864   1.366       .  A
C1863      H1875   1.082       .  S
C1864      C3856   1.393       .  A
C1864      H3876   1.077       .  S
C1865      C1866   1.368       .  A
C1865      H1877   1.081       .  S
C1866      C3858   1.392       .  A
C1866      H3878   1.076       .  S
H1876      C3864   1.077   1_455  S
H1878      C3866   1.077   1_455  S
C1881      C1882   1.412       .  A
C1881      C1886   1.408       .  A
C1881      F1888   1.358       .  S
C1882      C1883   1.409       .  A
C1883      C1884   1.395       .  A
C1883      F1890   1.358       .  S
C1884      C1885   1.407       .  A
C1884      F1889   1.358       .  S
C1885      C1886   1.412       .  A
C1886      F1887   1.358       .  S
C1891      C1892   1.409       .  A
C1891      C1896   1.403       .  A
C1891      F1898   1.358       .  S
C1892      C1893   1.406       .  A
C1893      C1894   1.397       .  A
C1893      F1900   1.358       .  S
C1894      C1895   1.408       .  A
C1894      F1899   1.358       .  S
C1895      C1896   1.409       .  A
C1896      F1897   1.358       .  S
C1901      C1902   1.409       .  A
C1901      C1906   1.403       .  A
C1901      F1908   1.358       .  S
C1902      C1903   1.406       .  A
C1903      C1904   1.400       .  A
C1903      F1910   1.358       .  S
C1904      C1905   1.410       .  A
C1904      F1909   1.358       .  S
C1905      C1906   1.410       .  A
C1906      F1907   1.358       .  S
C1911      C1912   1.405       .  A
C1911      C1916   1.397       .  A
C1911      F1918   1.358       .  S
C1912      C1913   1.403       .  A
C1913      C1914   1.399       .  A
C1913      F1920   1.359       .  S
C1914      C1915   1.413       .  A
C1914      F1919   1.358       .  S
C1915      C1916   1.408       .  A
C1916      F1917   1.357       .  S
C1921      C1922   1.408       .  A
C1921      C1926   1.402       .  A
C1921      F1928   1.358       .  S
C1922      C1923   1.407       .  A
C1923      C1924   1.397       .  A
C1923      F1930   1.359       .  S
C1924      C1925   1.408       .  A
C1924      F1929   1.358       .  S
C1925      C1926   1.410       .  A
C1926      F1927   1.358       .  S
C1931      C1932   1.408       .  A
C1931      C1936   1.389       .  A
C1931      F1938   1.359       .  S
C1932      C1933   1.408       .  A
C1933      C1934   1.399       .  A
C1933      F1940   1.358       .  S
C1934      C1935   1.409       .  A
C1934      F1939   1.357       .  S
C1935      C1936   1.409       .  A
C1936      F1937   1.359       .  S
C1941      C1942   1.404       .  A
C1941      C1946   1.398       .  A
C1941      F1948   1.358       .  S
C1942      C1943   1.408       .  A
C1943      C1944   1.403       .  A
C1943      F1950   1.358       .  S
C1944      C1945   1.410       .  A
C1944      F1949   1.358       .  S
C1945      C1946   1.413       .  A
C1946      F1947   1.358       .  S
C1951      C1952   1.408       .  A
C1951      C1956   1.398       .  A
C1951      F1958   1.358       .  S
C1952      C1953   1.409       .  A
C1953      C1954   1.401       .  A
C1953      F1960   1.358       .  S
C1954      C1955   1.407       .  A
C1954      F1959   1.358       .  S
C1955      C1956   1.407       .  A
C1956      F1957   1.359       .  S
C1961      C1962   1.407       .  A
C1961      C1966   1.395       .  A
C1961      F1968   1.358       .  S
C1962      C1963   1.414       .  A
C1963      C1964   1.411       .  A
C1963      F1970   1.358       .  S
C1964      C1965   1.412       .  A
C1964      F1969   1.358       .  S
C1965      C1966   1.411       .  A
C1966      F1967   1.358       .  S
C1971      C1972   1.410       .  A
C1971      C1976   1.403       .  A
C1971      F1978   1.358       .  S
C1972      C1973   1.409       .  A
C1973      C1974   1.397       .  A
C1973      F1980   1.358       .  S
C1974      C1975   1.409       .  A
C1974      F1979   1.359       .  S
C1975      C1976   1.408       .  A
C1976      F1977   1.358       .  S
C1981      C1982   1.410       .  A
C1981      C1986   1.402       .  A
C1981      F1988   1.358       .  S
C1982      C1983   1.411       .  A
C1983      C1984   1.400       .  A
C1983      F1990   1.358       .  S
C1984      C1985   1.407       .  A
C1984      F1989   1.358       .  S
C1985      C1986   1.408       .  A
C1986      F1987   1.358       .  S
C1991      C1992   1.405       .  A
C1991      C1996   1.396       .  A
C1991      F1998   1.358       .  S
C1992      C1993   1.407       .  A
C1993      C1994   1.396       .  A
C1993      F2000   1.359       .  S
C1994      C1995   1.406       .  A
C1994      F1999   1.359       .  S
C1995      C1996   1.407       .  A
C1996      F1997   1.358       .  S
O2001     Cr2019   2.001       .  S
O2001      C2009   1.267       .  A
O2002     Cr2019   1.983       .  S
O2002      C2003   1.260       .  A
C2003      O2004   1.264       .  A
C2003      C2472   1.487       .  S
O2004     Cr2020   2.000       .  S
O2005     Cr2020   1.988       .  S
O2005      C2006   1.263       .  A
C2006      O2007   1.267       .  A
C2006      C2482   1.490       .  S
O2007     Cr2021   2.008       .  S
O2008     Cr2021   1.965       .  S
O2008      C2009   1.260       .  A
C2009      C2495   1.473       .  S
O2010     Cr2019   1.976       .  S
O2010      C2018   1.257       .  A
O2011     Cr2019   2.009       .  S
O2011      C2012   1.266       .  A
C2012      O2013   1.260       .  A
C2012      C2233   1.490       .  S
O2013     Cr2020   1.976       .  S
O2014     Cr2020   2.012       .  S
O2014      C2015   1.264       .  A
C2015      O2016   1.260       .  A
C2015      C2333   1.492       .  S
O2016     Cr2021   1.978       .  S
O2017     Cr2021   2.015       .  S
O2017      C2018   1.263       .  A
C2018      C2367   1.502       .  S
Cr2019     O2022   1.773       .  S
Cr2020     O2022   1.772       .  S
Cr2021     O2022   1.771       .  S
O2023     Cr2041   1.978       .  S
O2023      C2031   1.260       .  A
O2024     Cr2041   1.992       .  S
O2024      C2025   1.263       .  A
C2025      O2026   1.261       .  A
C2025      C2492   1.472       .  S
O2026     Cr2042   1.979       .  S
O2027     Cr2042   2.015       .  S
O2027      C2028   1.270       .  A
C2028      O2029   1.262       .  A
C2028      C2462   1.497       .  S
O2029     Cr2043   1.990       .  S
O2030     Cr2043   2.000       .  S
O2030      C2031   1.265       .  A
C2031      C2455   1.480       .  S
O2032     Cr2041   2.012       .  S
O2032      C2040   1.265       .  A
O2033     Cr2041   1.972       .  S
O2033      C2034   1.257       .  A
C2034      O2035   1.268       .  A
C2034      C2300   1.498       .  S
O2035     Cr2042   2.024       .  S
O2036     Cr2042   1.981       .  S
O2036      C2037   1.260       .  A
C2037      O2038   1.265       .  A
C2037      C2336   1.498       .  S
O2038     Cr2043   2.014       .  S
O2039     Cr2043   1.986       .  S
O2039      C2040   1.261       .  A
C2040      C2234   1.497       .  S
Cr2041     O2044   1.774       .  S
Cr2042     O2044   1.773       .  S
Cr2043     O2044   1.773       .  S
O2045     Cr2063   2.004       .  S
O2045      C2053   1.270       .  A
O2046     Cr2063   1.981       .  S
O2046      C2047   1.262       .  A
C2047      O2048   1.265       .  A
C2047      C2442   1.483       .  S
O2048     Cr2064   2.002       .  S
O2049     Cr2064   1.978       .  S
O2049      C2050   1.259       .  A
C2050      O2051   1.260       .  A
C2050      C2432   1.478       .  S
O2051     Cr2065   1.985       .  S
O2052     Cr2065   1.997       .  S
O2052      C2053   1.268       .  A
C2053      C2465   1.496       .  S
O2054     Cr2063   1.978       .  S
O2054      C2062   1.258       .  A
O2055     Cr2063   2.012       .  S
O2055      C2056   1.265       .  A
C2056      O2057   1.257       .  A
C2056      C2301   1.498       .  S
O2057     Cr2064   1.973       .  S
O2058     Cr2064   2.012       .  S
O2058      C2059   1.268       .  A
C2059      O2060   1.266       .  A
C2059      C2231   1.492       .  S
O2060     Cr2065   1.988       .  S
O2061     Cr2065   1.992       .  S
O2061      C2062   1.254       .  A
C2062      C2266   1.494       .  S
Cr2063     O2066   1.765       .  S
Cr2064     O2066   1.771       .  S
Cr2065     O2066   1.778       .  S
O2067     Cr2085   1.999       .  S
O2067      C2075   1.264       .  A
O2068     Cr2085   1.978       .  S
O2068      C2069   1.263       .  A
C2069      O2070   1.270       .  A
C2069      C2485   1.485       .  S
O2070     Cr2086   2.013       .  S
O2071     Cr2086   1.978       .  S
O2071      C2072   1.259       .  A
C2072      O2073   1.265       .  A
C2072      C2425   1.485       .  S
O2073     Cr2087   2.000       .  S
O2074     Cr2087   1.992       .  S
O2074      C2075   1.263       .  A
C2075      C2445   1.491       .  S
O2076     Cr2085   1.980       .  S
O2076      C2084   1.261       .  A
O2077     Cr2085   2.006       .  S
O2077      C2078   1.261       .  A
C2078      O2079   1.258       .  A
C2078      C2265   1.492       .  S
O2079     Cr2086   1.982       .  S
O2080     Cr2086   2.013       .  S
O2080      C2081   1.266       .  A
C2081      O2082   1.262       .  A
C2081      C2232   1.518       .  S
O2082     Cr2087   1.983       .  S
O2083     Cr2087   2.013       .  S
O2083      C2084   1.264       .  A
C2084      C2370   1.505       .  S
Cr2085     O2088   1.770       .  S
Cr2086     O2088   1.773       .  S
Cr2087     O2088   1.775       .  S
O2089     Cr2107   1.986       .  S
O2089      C2097   1.264       .  A
O2090     Cr2107   2.007       .  S
O2090      C2091   1.265       .  A
C2091      O2092   1.262       .  A
C2091      C2405   1.490       .  S
O2092     Cr2108   1.986       .  S
O2093     Cr2108   2.000       .  S
O2093      C2094   1.266       .  A
C2094      O2095   1.261       .  A
C2094      C2422   1.483       .  S
O2095     Cr2109   1.982       .  S
O2096     Cr2109   2.003       .  S
O2096      C2097   1.266       .  A
C2097      C2415   1.486       .  S
O2098     Cr2107   2.010       .  S
O2098      C2106   1.264       .  A
O2099     Cr2107   1.990       .  S
O2099      C2100   1.263       .  A
C2100      O2101   1.263       .  A
C2100      C2369   1.515       .  S
O2101     Cr2108   2.014       .  S
O2102     Cr2108   1.985       .  S
O2102      C2103   1.261       .  A
C2103      O2104   1.262       .  A
C2103      C2200   1.514       .  S
O2104     Cr2109   2.002       .  S
O2105     Cr2109   1.979       .  S
O2105      C2106   1.259       .  A
C2106      C2268   1.490       .  S
Cr2107     O2110   1.769       .  S
Cr2108     O2110   1.770       .  S
Cr2109     O2110   1.773       .  S
O2111     Cr2129   1.974       .  S
O2111      C2119   1.261       .  A
O2112     Cr2129   1.998       .  S
O2112      C2113   1.265       .  A
C2113      O2114   1.261       .  A
C2113      C2412   1.472       .  S
O2114     Cr2130   1.974       .  S
O2115     Cr2130   1.994       .  S
O2115      C2116   1.263       .  A
C2116      O2117   1.262       .  A
C2116      C2475   1.486       .  S
O2117     Cr2131   1.987       .  S
O2118     Cr2131   2.006       .  S
O2118      C2119   1.269       .  A
C2119      C2392   1.482       .  S
O2120     Cr2129   2.015       .  S
O2120      C2128   1.263       .  A
O2121     Cr2129   1.977       .  S
O2121      C2122   1.259       .  A
C2122      O2123   1.262       .  A
C2122      C2334   1.486       .  S
O2123     Cr2130   2.002       .  S
O2124     Cr2130   1.965       .  S
O2124      C2125   1.257       .  A
C2125      O2126   1.267       .  A
C2125      C2197   1.486       .  S
O2126     Cr2131   2.012       .  S
O2127     Cr2131   1.977       .  S
O2127      C2128   1.257       .  A
C2128      C2368   1.503       .  S
Cr2129     O2132   1.774       .  S
Cr2130     O2132   1.773       .  S
Cr2131     O2132   1.771       .  S
O2133     Cr2151   1.979       .  S
O2133      C2141   1.262       .  A
O2134     Cr2151   2.009       .  S
O2134      C2135   1.269       .  A
C2135      O2136   1.264       .  A
C2135      C2382   1.491       .  S
O2136     Cr2152   1.987       .  S
O2137     Cr2152   1.987       .  S
O2137      C2138   1.263       .  A
C2138      O2139   1.261       .  A
C2138      C2435   1.481       .  S
O2139     Cr2153   1.980       .  S
O2140     Cr2153   2.009       .  S
O2140      C2141   1.267       .  A
C2141      C2402   1.486       .  S
O2142     Cr2151   2.018       .  S
O2142      C2150   1.265       .  A
O2143     Cr2151   1.971       .  S
O2143      C2144   1.258       .  A
C2144      O2145   1.257       .  A
C2144      C2267   1.492       .  S
O2145     Cr2152   1.993       .  S
O2146     Cr2152   1.985       .  S
O2146      C2147   1.263       .  A
C2147      O2148   1.266       .  A
C2147      C2199   1.491       .  S
O2148     Cr2153   2.009       .  S
O2149     Cr2153   1.982       .  S
O2149      C2150   1.259       .  A
C2150      C2302   1.499       .  S
Cr2151     O2154   1.764       .  S
Cr2152     O2154   1.775       .  S
Cr2153     O2154   1.769       .  S
O2155     Cr2173   2.006       .  S
O2155      C2163   1.268       .  A
O2156     Cr2173   1.981       .  S
O2156      C2157   1.261       .  A
C2157      O2158   1.267       .  A
C2157      C2452   1.485       .  S
O2158     Cr2174   2.007       .  S
O2159     Cr2174   1.984       .  S
O2159      C2160   1.261       .  A
C2160      O2161   1.267       .  A
C2160      C2385   1.490       .  S
O2161     Cr2175   2.006       .  S
O2162     Cr2175   1.984       .  S
O2162      C2163   1.263       .  A
C2163      C2395   1.485       .  S
O2164     Cr2173   1.982       .  S
O2164      C2172   1.260       .  A
O2165     Cr2173   2.018       .  S
O2165      C2166   1.265       .  A
C2166      O2167   1.260       .  A
C2166      C2198   1.502       .  S
O2167     Cr2174   1.984       .  S
O2168     Cr2174   2.015       .  S
O2168      C2169   1.266       .  A
C2169      O2170   1.257       .  A
C2169      C2335   1.492       .  S
O2170     Cr2175   1.972       .  S
O2171     Cr2175   2.013       .  S
O2171      C2172   1.264       .  A
C2172      C2299   1.496       .  S
Cr2173     O2176   1.773       .  S
Cr2174     O2176   1.776       .  S
Cr2175     O2176   1.776       .  S
N2177      H2209   1.041       .  S
N2177      C3182   1.354       .  A
N2177      C2181   1.350       .  A
N2178      C2185   1.352       .  A
N2179      H2210   1.043       .  S
N2179      C3184   1.351       .  A
N2179      C2183   1.358       .  A
N2180      C2187   1.358       .  A
C2181      C2189   1.388       .  A
C2181      C2197   1.413       .  A
C2182      N3177   1.354       .  A
C2182      C2198   1.415   1_565  A
C2182      C3190   1.387       .  A
C2183      C2191   1.392       .  A
C2183      C2200   1.426       .  A
C2184      N3179   1.351       .  A
C2184      C2199   1.413   1_565  A
C2184      C3192   1.384       .  A
C2185      C2197   1.412       .  A
C2185      C2193   1.380       .  A
C2186      C2200   1.420       .  A
C2187      C2195   1.381       .  A
C2187      C2198   1.417       .  A
C2188      C2199   1.418       .  A
C2189      C2190   1.377       .  A
C2189      H2201   1.082       .  S
C2190      C3182   1.387       .  A
C2190      H3202   1.082       .  S
C2191      C2192   1.377       .  A
C2191      H2203   1.079       .  S
C2192      C3184   1.384       .  A
C2192      H3204   1.083       .  S
C2193      C2194   1.367       .  A
C2193      H2205   1.072       .  S
C2195      C2196   1.366       .  A
C2195      H2207   1.074       .  S
H2202      C3190   1.082   1_545  S
H2204      C3192   1.083   1_545  S
N2211      C2216   1.358       .  A
N2211      C3215   1.351       .  A
N2212      C2219   1.354       .  A
N2212      C2220   1.356       .  A
N2213      H2244   1.041       .  S
N2213      C2218   1.350       .  A
N2213      C3217   1.353       .  A
N2214      C2221   1.359       .  A
N2214      C2222   1.354       .  A
C2215      N3211   1.351   1_545  A
C2215      C3223   1.384   1_545  A
C2215      C2231   1.412       .  A
C2216      C2232   1.424       .  A
C2216      C2224   1.390       .  A
C2217      N3213   1.353   1_545  A
C2217      C3225   1.387   1_545  A
C2217      C2234   1.415       .  A
C2218      C2233   1.413       .  A
C2218      C2226   1.388       .  A
C2219      C2227   1.382       .  A
C2220      C2234   1.419       .  A
C2220      C2228   1.382       .  A
C2221      C2229   1.387       .  A
C2222      C2230   1.379       .  A
C2222      C2233   1.416       .  A
C2223      C3215   1.384       .  A
C2223      C2224   1.377       .  A
C2223      H3235   1.083       .  S
C2224      H2236   1.080       .  S
C2225      C3217   1.387       .  A
C2225      C2226   1.377       .  A
C2225      H3237   1.082       .  S
C2226      H2238   1.082       .  S
C2227      C2228   1.370       .  A
C2228      H2240   1.073       .  S
C2229      C2230   1.366       .  A
C2230      H2242   1.070       .  S
H2235      C3223   1.083   1_545  S
H2237      C3225   1.082   1_545  S
N2245      H2277   1.041       .  S
N2245      C3250   1.353       .  A
N2245      C2249   1.354       .  A
N2246      C2253   1.354       .  A
N2246      C2754   1.354       .  A
N2247      H2278   1.041       .  S
N2247      C3252   1.353       .  A
N2247      C2251   1.354       .  A
N2248      C2255   1.352       .  A
N2248      C2756   1.352       .  A
C2249      C2257   1.384       .  A
C2249      C2265   1.412       .  A
C2250      N3245   1.353   1_545  A
C2250      C2266   1.419       .  A
C2250      C3258   1.390   1_545  A
C2251      C2259   1.383       .  A
C2251      C2268   1.411       .  A
C2252      N3247   1.353   1_545  A
C2252      C2267   1.419       .  A
C2252      C3260   1.391   1_545  A
C2253      C2265   1.414       .  A
C2253      C2261   1.382       .  A
C2254      N2746   1.354       .  A
C2254      C2268   1.412   1_556  A
C2254      C2762   1.381       .  A
C2255      C2263   1.386       .  A
C2255      C2266   1.413       .  A
C2256      N2748   1.352       .  A
C2256      C2764   1.387       .  A
C2256      C2267   1.415   1_556  A
C2257      C2258   1.372       .  A
C2257      H2269   1.082       .  S
C2258      C3250   1.390       .  A
C2258      H3270   1.080       .  S
C2259      C2260   1.369       .  A
C2259      H2271   1.082       .  S
C2260      C3252   1.391       .  A
C2260      H3272   1.079       .  S
C2261      C2262   1.366       .  A
C2261      H2273   1.074       .  S
C2262      C2754   1.381       .  A
C2262      H2774   1.074       .  S
C2263      C2264   1.360       .  A
C2263      H2275   1.081       .  S
C2264      C2756   1.387       .  A
C2264      H2776   1.081       .  S
H2270      C3258   1.080   1_545  S
H2272      C3260   1.079   1_545  S
H2274      C2762   1.074   1_554  S
H2276      C2764   1.081   1_554  S
N2279      H2311   1.046       .  S
N2279      C2284   1.356       .  A
N2279      C2783   1.355       .  A
N2280      C2287   1.353       .  A
N2281      H2312   1.047       .  S
N2281      C2286   1.355       .  A
N2281      C2785   1.357       .  A
N2282      C2289   1.354       .  A
C2283      N2779   1.355   1_554  A
C2283      C2791   1.384   1_554  A
C2283      C2299   1.418       .  A
C2284      C2300   1.417       .  A
C2284      C2292   1.384       .  A
C2285      N2781   1.357       .  A
C2285      C2793   1.383       .  A
C2285      C2302   1.417   1_556  A
C2286      C2301   1.420       .  A
C2286      C2294   1.386       .  A
C2287      C2299   1.414       .  A
C2287      C2295   1.386       .  A
C2288      C2302   1.414       .  A
C2289      C2297   1.386       .  A
C2289      C2300   1.418       .  A
C2290      C2301   1.419       .  A
C2291      C2783   1.384       .  A
C2291      C2292   1.370       .  A
C2291      H2803   1.073       .  S
C2292      H2304   1.076       .  S
C2293      C2785   1.383       .  A
C2293      C2294   1.374       .  A
C2293      H2805   1.077       .  S
C2294      H2306   1.075       .  S
C2295      C2296   1.371       .  A
C2295      H2307   1.082       .  S
C2297      C2298   1.373       .  A
C2297      H2309   1.082       .  S
H2303      C2791   1.073   1_554  S
H2305      C2793   1.077   1_554  S
N2313      H2345   1.041       .  S
N2313      C2818   1.351       .  A
N2313      C2317   1.351       .  A
N2314      C2321   1.357       .  A
N2314      C3322   1.356       .  A
N2315      H2346   1.041       .  S
N2315      C2820   1.354       .  A
N2315      C2319   1.354       .  A
N2316      C2323   1.354       .  A
N2316      C3324   1.354       .  A
C2317      C2325   1.387       .  A
C2317      C2333   1.411       .  A
C2318      N2813   1.351       .  A
C2318      C2334   1.410   1_556  A
C2318      C2826   1.387       .  A
C2319      C2327   1.387       .  A
C2319      C2336   1.417       .  A
C2320      N2815   1.354   1_554  A
C2320      C2335   1.417       .  A
C2320      C2828   1.387   1_554  A
C2321      C2333   1.418       .  A
C2321      C2329   1.382       .  A
C2322      N3314   1.356   1_545  A
C2322      C2336   1.421       .  A
C2322      C3330   1.384   1_545  A
C2323      C2331   1.382       .  A
C2323      C2334   1.414       .  A
C2324      N3316   1.354       .  A
C2324      C3332   1.383       .  A
C2324      C2335   1.415   1_565  A
C2325      C2326   1.372       .  A
C2325      H2337   1.082       .  S
C2326      C2818   1.387       .  A
C2326      H2838   1.082       .  S
C2327      C2328   1.376       .  A
C2327      H2339   1.082       .  S
C2328      C2820   1.387       .  A
C2328      H2840   1.082       .  S
C2329      C2330   1.367       .  A
C2329      H2341   1.075       .  S
C2330      C3322   1.384       .  A
C2330      H3342   1.072       .  S
C2331      C2332   1.364       .  A
C2331      H2343   1.073       .  S
C2332      C3324   1.383       .  A
C2332      H3344   1.073       .  S
H2338      C2826   1.082   1_554  S
H2340      C2828   1.082   1_554  S
H2342      C3330   1.072   1_545  S
H2344      C3332   1.073   1_545  S
N2347      H2379   1.042       .  S
N2347      C2852   1.357       .  A
N2347      C2351   1.360       .  A
N2348      C2355   1.354       .  A
N2349      H2380   1.037       .  S
N2349      C2854   1.362       .  A
N2349      C2353   1.360       .  A
N2350      C2357   1.355       .  A
C2351      C2359   1.382       .  A
C2351      C2367   1.418       .  A
C2352      N2847   1.358       .  A
C2352      C2368   1.421   1_556  A
C2352      C2860   1.384       .  A
C2353      C2361   1.387       .  A
C2353      C2370   1.428       .  A
C2354      N2849   1.362       .  A
C2354      C2369   1.430   1_556  A
C2354      C2862   1.387       .  A
C2355      C2367   1.415       .  A
C2355      C2363   1.382       .  A
C2356      C2370   1.425       .  A
C2357      C2365   1.383       .  A
C2357      C2368   1.420       .  A
C2358      C2369   1.431       .  A
C2359      C2360   1.366       .  A
C2359      H2371   1.076       .  S
C2360      C2852   1.384       .  A
C2360      H2872   1.072       .  S
C2361      C2362   1.367       .  A
C2361      H2373   1.082       .  S
C2362      C2854   1.387       .  A
C2362      H2874   1.081       .  S
C2363      C2364   1.366       .  A
C2363      H2375   1.082       .  S
C2365      C2366   1.368       .  A
C2365      H2377   1.081       .  S
H2372      C2860   1.072   1_554  S
H2374      C2862   1.081   1_554  S
C2381      C2382   1.412       .  A
C2381      C2386   1.408       .  A
C2381      F2388   1.358       .  S
C2382      C2383   1.409       .  A
C2383      C2384   1.395       .  A
C2383      F2390   1.358       .  S
C2384      C2385   1.407       .  A
C2384      F2389   1.358       .  S
C2385      C2386   1.412       .  A
C2386      F2387   1.358       .  S
C2391      C2392   1.409       .  A
C2391      C2396   1.403       .  A
C2391      F2398   1.358       .  S
C2392      C2393   1.406       .  A
C2393      C2394   1.397       .  A
C2393      F2400   1.358       .  S
C2394      C2395   1.408       .  A
C2394      F2399   1.358       .  S
C2395      C2396   1.409       .  A
C2396      F2397   1.358       .  S
C2401      C2402   1.409       .  A
C2401      C2406   1.403       .  A
C2401      F2408   1.358       .  S
C2402      C2403   1.407       .  A
C2403      C2404   1.400       .  A
C2403      F2410   1.358       .  S
C2404      C2405   1.410       .  A
C2404      F2409   1.358       .  S
C2405      C2406   1.410       .  A
C2406      F2407   1.358       .  S
C2411      C2412   1.405       .  A
C2411      C2416   1.397       .  A
C2411      F2418   1.358       .  S
C2412      C2413   1.403       .  A
C2413      C2414   1.399       .  A
C2413      F2420   1.359       .  S
C2414      C2415   1.413       .  A
C2414      F2419   1.358       .  S
C2415      C2416   1.408       .  A
C2416      F2417   1.357       .  S
C2421      C2422   1.408       .  A
C2421      C2426   1.402       .  A
C2421      F2428   1.358       .  S
C2422      C2423   1.407       .  A
C2423      C2424   1.397       .  A
C2423      F2430   1.359       .  S
C2424      C2425   1.408       .  A
C2424      F2429   1.358       .  S
C2425      C2426   1.410       .  A
C2426      F2427   1.358       .  S
C2431      C2432   1.408       .  A
C2431      C2436   1.389       .  A
C2431      F2438   1.359       .  S
C2432      C2433   1.408       .  A
C2433      C2434   1.399       .  A
C2433      F2440   1.358       .  S
C2434      C2435   1.409       .  A
C2434      F2439   1.357       .  S
C2435      C2436   1.409       .  A
C2436      F2437   1.359       .  S
C2441      C2442   1.404       .  A
C2441      C2446   1.398       .  A
C2441      F2448   1.358       .  S
C2442      C2443   1.408       .  A
C2443      C2444   1.403       .  A
C2443      F2450   1.358       .  S
C2444      C2445   1.410       .  A
C2444      F2449   1.358       .  S
C2445      C2446   1.413       .  A
C2446      F2447   1.358       .  S
C2451      C2452   1.408       .  A
C2451      C2456   1.398       .  A
C2451      F2458   1.358       .  S
C2452      C2453   1.409       .  A
C2453      C2454   1.401       .  A
C2453      F2460   1.357       .  S
C2454      C2455   1.407       .  A
C2454      F2459   1.358       .  S
C2455      C2456   1.407       .  A
C2456      F2457   1.359       .  S
C2461      C2462   1.407       .  A
C2461      C2466   1.395       .  A
C2461      F2468   1.358       .  S
C2462      C2463   1.414       .  A
C2463      C2464   1.411       .  A
C2463      F2470   1.358       .  S
C2464      C2465   1.412       .  A
C2464      F2469   1.358       .  S
C2465      C2466   1.411       .  A
C2466      F2467   1.358       .  S
C2471      C2472   1.410       .  A
C2471      C2476   1.403       .  A
C2471      F2478   1.358       .  S
C2472      C2473   1.409       .  A
C2473      C2474   1.397       .  A
C2473      F2480   1.358       .  S
C2474      C2475   1.409       .  A
C2474      F2479   1.359       .  S
C2475      C2476   1.408       .  A
C2476      F2477   1.358       .  S
C2481      C2482   1.410       .  A
C2481      C2486   1.402       .  A
C2481      F2488   1.358       .  S
C2482      C2483   1.411       .  A
C2483      C2484   1.400       .  A
C2483      F2490   1.358       .  S
C2484      C2485   1.407       .  A
C2484      F2489   1.358       .  S
C2485      C2486   1.408       .  A
C2486      F2487   1.358       .  S
C2491      C2492   1.405       .  A
C2491      C2496   1.396       .  A
C2491      F2498   1.358       .  S
C2492      C2493   1.407       .  A
C2493      C2494   1.396       .  A
C2493      F2500   1.359       .  S
C2494      C2495   1.406       .  A
C2494      F2499   1.359       .  S
C2495      C2496   1.407       .  A
C2496      F2497   1.358       .  S
O2501     Cr2519   2.001       .  S
O2501      C2509   1.267       .  A
O2502     Cr2519   1.983       .  S
O2502      C2503   1.260       .  A
C2503      O2504   1.264       .  A
C2503      C2972   1.487       .  S
O2504     Cr2520   2.000       .  S
O2505     Cr2520   1.988       .  S
O2505      C2506   1.263       .  A
C2506      O2507   1.267       .  A
C2506      C2982   1.490       .  S
O2507     Cr2521   2.008       .  S
O2508     Cr2521   1.965       .  S
O2508      C2509   1.260       .  A
C2509      C2995   1.473       .  S
O2510     Cr2519   1.976       .  S
O2510      C2518   1.257       .  A
O2511     Cr2519   2.009       .  S
O2511      C2512   1.266       .  A
C2512      O2513   1.260       .  A
C2512      C2733   1.490       .  S
O2513     Cr2520   1.976       .  S
O2514     Cr2520   2.012       .  S
O2514      C2515   1.264       .  A
C2515      O2516   1.260       .  A
C2515      C2833   1.492       .  S
O2516     Cr2521   1.978       .  S
O2517     Cr2521   2.015       .  S
O2517      C2518   1.263       .  A
C2518      C2867   1.502       .  S
Cr2519     O2522   1.773       .  S
Cr2520     O2522   1.772       .  S
Cr2521     O2522   1.771       .  S
O2523     Cr2541   1.978       .  S
O2523      C2531   1.260       .  A
O2524     Cr2541   1.992       .  S
O2524      C2525   1.264       .  A
C2525      O2526   1.261       .  A
C2525      C2992   1.472       .  S
O2526     Cr2542   1.979       .  S
O2527     Cr2542   2.015       .  S
O2527      C2528   1.270       .  A
C2528      O2529   1.262       .  A
C2528      C2962   1.497       .  S
O2529     Cr2543   1.989       .  S
O2530     Cr2543   2.000       .  S
O2530      C2531   1.265       .  A
C2531      C2955   1.480       .  S
O2532     Cr2541   2.012       .  S
O2532      C2540   1.265       .  A
O2533     Cr2541   1.972       .  S
O2533      C2534   1.257       .  A
C2534      O2535   1.268       .  A
C2534      C2800   1.498       .  S
O2535     Cr2542   2.024       .  S
O2536     Cr2542   1.981       .  S
O2536      C2537   1.260       .  A
C2537      O2538   1.265       .  A
C2537      C2836   1.498       .  S
O2538     Cr2543   2.014       .  S
O2539     Cr2543   1.986       .  S
O2539      C2540   1.261       .  A
C2540      C2734   1.497       .  S
Cr2541     O2544   1.774       .  S
Cr2542     O2544   1.773       .  S
Cr2543     O2544   1.773       .  S
O2545     Cr2563   2.004       .  S
O2545      C2553   1.270       .  A
O2546     Cr2563   1.981       .  S
O2546      C2547   1.262       .  A
C2547      O2548   1.265       .  A
C2547      C2942   1.483       .  S
O2548     Cr2564   2.002       .  S
O2549     Cr2564   1.978       .  S
O2549      C2550   1.259       .  A
C2550      O2551   1.260       .  A
C2550      C2932   1.478       .  S
O2551     Cr2565   1.985       .  S
O2552     Cr2565   1.997       .  S
O2552      C2553   1.268       .  A
C2553      C2965   1.496       .  S
O2554     Cr2563   1.978       .  S
O2554      C2562   1.258       .  A
O2555     Cr2563   2.013       .  S
O2555      C2556   1.265       .  A
C2556      O2557   1.257       .  A
C2556      C2801   1.498       .  S
O2557     Cr2564   1.973       .  S
O2558     Cr2564   2.012       .  S
O2558      C2559   1.268       .  A
C2559      O2560   1.266       .  A
C2559      C2731   1.492       .  S
O2560     Cr2565   1.988       .  S
O2561     Cr2565   1.991       .  S
O2561      C2562   1.254       .  A
C2562      C2766   1.494       .  S
Cr2563     O2566   1.765       .  S
Cr2564     O2566   1.771       .  S
Cr2565     O2566   1.778       .  S
O2567     Cr2585   1.999       .  S
O2567      C2575   1.264       .  A
O2568     Cr2585   1.978       .  S
O2568      C2569   1.263       .  A
C2569      O2570   1.270       .  A
C2569      C2985   1.485       .  S
O2570     Cr2586   2.013       .  S
O2571     Cr2586   1.978       .  S
O2571      C2572   1.259       .  A
C2572      O2573   1.265       .  A
C2572      C2925   1.485       .  S
O2573     Cr2587   2.001       .  S
O2574     Cr2587   1.992       .  S
O2574      C2575   1.263       .  A
C2575      C2945   1.491       .  S
O2576     Cr2585   1.980       .  S
O2576      C2584   1.261       .  A
O2577     Cr2585   2.006       .  S
O2577      C2578   1.261       .  A
C2578      O2579   1.258       .  A
C2578      C2765   1.492       .  S
O2579     Cr2586   1.982       .  S
O2580     Cr2586   2.013       .  S
O2580      C2581   1.266       .  A
C2581      O2582   1.262       .  A
C2581      C2732   1.518       .  S
O2582     Cr2587   1.983       .  S
O2583     Cr2587   2.013       .  S
O2583      C2584   1.264       .  A
C2584      C2870   1.505       .  S
Cr2585     O2588   1.770       .  S
Cr2586     O2588   1.773       .  S
Cr2587     O2588   1.775       .  S
O2589     Cr2607   1.986       .  S
O2589      C2597   1.265       .  A
O2590     Cr2607   2.007       .  S
O2590      C2591   1.265       .  A
C2591      O2592   1.262       .  A
C2591      C2905   1.490       .  S
O2592     Cr2608   1.986       .  S
O2593     Cr2608   2.000       .  S
O2593      C2594   1.266       .  A
C2594      O2595   1.261       .  A
C2594      C2922   1.483       .  S
O2595     Cr2609   1.982       .  S
O2596     Cr2609   2.003       .  S
O2596      C2597   1.266       .  A
C2597      C2915   1.486       .  S
O2598     Cr2607   2.010       .  S
O2598      C2606   1.264       .  A
O2599     Cr2607   1.990       .  S
O2599      C2600   1.263       .  A
C2600      O2601   1.263       .  A
C2600      C2869   1.515       .  S
O2601     Cr2608   2.014       .  S
O2602     Cr2608   1.985       .  S
O2602      C2603   1.261       .  A
C2603      O2604   1.262       .  A
C2603      C2700   1.514       .  S
O2604     Cr2609   2.002       .  S
O2605     Cr2609   1.979       .  S
O2605      C2606   1.259       .  A
C2606      C2768   1.490       .  S
Cr2607     O2610   1.769       .  S
Cr2608     O2610   1.770       .  S
Cr2609     O2610   1.773       .  S
O2611     Cr2629   1.975       .  S
O2611      C2619   1.261       .  A
O2612     Cr2629   1.998       .  S
O2612      C2613   1.265       .  A
C2613      O2614   1.261       .  A
C2613      C2912   1.472       .  S
O2614     Cr2630   1.974       .  S
O2615     Cr2630   1.994       .  S
O2615      C2616   1.263       .  A
C2616      O2617   1.262       .  A
C2616      C2975   1.486       .  S
O2617     Cr2631   1.987       .  S
O2618     Cr2631   2.006       .  S
O2618      C2619   1.269       .  A
C2619      C2892   1.482       .  S
O2620     Cr2629   2.015       .  S
O2620      C2628   1.263       .  A
O2621     Cr2629   1.977       .  S
O2621      C2622   1.259       .  A
C2622      O2623   1.262       .  A
C2622      C2834   1.486       .  S
O2623     Cr2630   2.002       .  S
O2624     Cr2630   1.965       .  S
O2624      C2625   1.257       .  A
C2625      O2626   1.266       .  A
C2625      C2697   1.486       .  S
O2626     Cr2631   2.011       .  S
O2627     Cr2631   1.977       .  S
O2627      C2628   1.256       .  A
C2628      C2868   1.503       .  S
Cr2629     O2632   1.774       .  S
Cr2630     O2632   1.773       .  S
Cr2631     O2632   1.771       .  S
O2633     Cr2651   1.979       .  S
O2633      C2641   1.262       .  A
O2634     Cr2651   2.010       .  S
O2634      C2635   1.269       .  A
C2635      O2636   1.264       .  A
C2635      C2882   1.491       .  S
O2636     Cr2652   1.987       .  S
O2637     Cr2652   1.987       .  S
O2637      C2638   1.263       .  A
C2638      O2639   1.261       .  A
C2638      C2935   1.481       .  S
O2639     Cr2653   1.979       .  S
O2640     Cr2653   2.009       .  S
O2640      C2641   1.267       .  A
C2641      C2902   1.486       .  S
O2642     Cr2651   2.018       .  S
O2642      C2650   1.265       .  A
O2643     Cr2651   1.971       .  S
O2643      C2644   1.258       .  A
C2644      O2645   1.257       .  A
C2644      C2767   1.492       .  S
O2645     Cr2652   1.993       .  S
O2646     Cr2652   1.985       .  S
O2646      C2647   1.263       .  A
C2647      O2648   1.266       .  A
C2647      C2699   1.491       .  S
O2648     Cr2653   2.009       .  S
O2649     Cr2653   1.982       .  S
O2649      C2650   1.259       .  A
C2650      C2802   1.499       .  S
Cr2651     O2654   1.764       .  S
Cr2652     O2654   1.775       .  S
Cr2653     O2654   1.769       .  S
O2655     Cr2673   2.006       .  S
O2655      C2663   1.268       .  A
O2656     Cr2673   1.981       .  S
O2656      C2657   1.261       .  A
C2657      O2658   1.267       .  A
C2657      C2952   1.485       .  S
O2658     Cr2674   2.007       .  S
O2659     Cr2674   1.984       .  S
O2659      C2660   1.261       .  A
C2660      O2661   1.267       .  A
C2660      C2885   1.490       .  S
O2661     Cr2675   2.006       .  S
O2662     Cr2675   1.984       .  S
O2662      C2663   1.263       .  A
C2663      C2895   1.485       .  S
O2664     Cr2673   1.982       .  S
O2664      C2672   1.260       .  A
O2665     Cr2673   2.018       .  S
O2665      C2666   1.265       .  A
C2666      O2667   1.260       .  A
C2666      C2698   1.502       .  S
O2667     Cr2674   1.984       .  S
O2668     Cr2674   2.015       .  S
O2668      C2669   1.266       .  A
C2669      O2670   1.257       .  A
C2669      C2835   1.493       .  S
O2670     Cr2675   1.972       .  S
O2671     Cr2675   2.013       .  S
O2671      C2672   1.264       .  A
C2672      C2799   1.496       .  S
Cr2673     O2676   1.773       .  S
Cr2674     O2676   1.776       .  S
Cr2675     O2676   1.776       .  S
N2677      H2709   1.041       .  S
N2677      C3682   1.354       .  A
N2677      C2681   1.350       .  A
N2678      C2685   1.352       .  A
N2679      H2710   1.043       .  S
N2679      C3684   1.351       .  A
N2679      C2683   1.358       .  A
N2680      C2687   1.358       .  A
C2681      C2689   1.388       .  A
C2681      C2697   1.413       .  A
C2682      N3677   1.354       .  A
C2682      C2698   1.415   1_565  A
C2682      C3690   1.387       .  A
C2683      C2691   1.392       .  A
C2683      C2700   1.426       .  A
C2684      N3679   1.351       .  A
C2684      C2699   1.413   1_565  A
C2684      C3692   1.384       .  A
C2685      C2697   1.412       .  A
C2685      C2693   1.380       .  A
C2686      C2700   1.420       .  A
C2687      C2695   1.381       .  A
C2687      C2698   1.417       .  A
C2688      C2699   1.418       .  A
C2689      C2690   1.377       .  A
C2689      H2701   1.082       .  S
C2690      C3682   1.387       .  A
C2690      H3702   1.082       .  S
C2691      C2692   1.377       .  A
C2691      H2703   1.079       .  S
C2692      C3684   1.384       .  A
C2692      H3704   1.083       .  S
C2693      C2694   1.367       .  A
C2693      H2705   1.072       .  S
C2695      C2696   1.366       .  A
C2695      H2707   1.074       .  S
H2702      C3690   1.082   1_545  S
H2704      C3692   1.083   1_545  S
N2711      C2716   1.358       .  A
N2711      C3715   1.351       .  A
N2712      C2719   1.354       .  A
N2712      C2720   1.356       .  A
N2713      H2744   1.041       .  S
N2713      C2718   1.350       .  A
N2713      C3717   1.353       .  A
N2714      C2721   1.359       .  A
N2714      C2722   1.354       .  A
C2715      N3711   1.351   1_545  A
C2715      C3723   1.384   1_545  A
C2715      C2731   1.412       .  A
C2716      C2732   1.424       .  A
C2716      C2724   1.390       .  A
C2717      N3713   1.353   1_545  A
C2717      C3725   1.387   1_545  A
C2717      C2734   1.415       .  A
C2718      C2733   1.413       .  A
C2718      C2726   1.388       .  A
C2719      C2727   1.382       .  A
C2720      C2734   1.419       .  A
C2720      C2728   1.382       .  A
C2721      C2729   1.387       .  A
C2722      C2730   1.379       .  A
C2722      C2733   1.416       .  A
C2723      C3715   1.384       .  A
C2723      C2724   1.377       .  A
C2723      H3735   1.083       .  S
C2724      H2736   1.080       .  S
C2725      C3717   1.387       .  A
C2725      C2726   1.377       .  A
C2725      H3737   1.082       .  S
C2726      H2738   1.082       .  S
C2727      C2728   1.370       .  A
C2728      H2740   1.073       .  S
C2729      C2730   1.367       .  A
C2730      H2742   1.070       .  S
H2735      C3723   1.083   1_545  S
H2737      C3725   1.082   1_545  S
N2745      H2777   1.041       .  S
N2745      C3750   1.353       .  A
N2745      C2749   1.354       .  A
N2746      C2753   1.354       .  A
N2747      H2778   1.041       .  S
N2747      C3752   1.353       .  A
N2747      C2751   1.354       .  A
N2748      C2755   1.352       .  A
C2749      C2757   1.384       .  A
C2749      C2765   1.412       .  A
C2750      N3745   1.353   1_545  A
C2750      C2766   1.419       .  A
C2750      C3758   1.390   1_545  A
C2751      C2759   1.383       .  A
C2751      C2768   1.411       .  A
C2752      N3747   1.353   1_545  A
C2752      C2767   1.419       .  A
C2752      C3760   1.391   1_545  A
C2753      C2765   1.414       .  A
C2753      C2761   1.382       .  A
C2754      C2768   1.412       .  A
C2755      C2763   1.386       .  A
C2755      C2766   1.413       .  A
C2756      C2767   1.415       .  A
C2757      C2758   1.372       .  A
C2757      H2769   1.082       .  S
C2758      C3750   1.390       .  A
C2758      H3770   1.080       .  S
C2759      C2760   1.369       .  A
C2759      H2771   1.082       .  S
C2760      C3752   1.391       .  A
C2760      H3772   1.079       .  S
C2761      C2762   1.366       .  A
C2761      H2773   1.074       .  S
C2763      C2764   1.360       .  A
C2763      H2775   1.081       .  S
H2770      C3758   1.080   1_545  S
H2772      C3760   1.079   1_545  S
N2779      H2811   1.046       .  S
N2779      C2784   1.356       .  A
N2780      C2787   1.353       .  A
N2781      H2812   1.047       .  S
N2781      C2786   1.355       .  A
N2782      C2789   1.354       .  A
C2783      C2799   1.418       .  A
C2784      C2800   1.417       .  A
C2784      C2792   1.384       .  A
C2785      C2802   1.417       .  A
C2786      C2801   1.420       .  A
C2786      C2794   1.386       .  A
C2787      C2799   1.414       .  A
C2787      C2795   1.386       .  A
C2788      C2802   1.414       .  A
C2789      C2797   1.386       .  A
C2789      C2800   1.418       .  A
C2790      C2801   1.419       .  A
C2791      C2792   1.370       .  A
C2792      H2804   1.076       .  S
C2793      C2794   1.374       .  A
C2794      H2806   1.075       .  S
C2795      C2796   1.371       .  A
C2795      H2807   1.082       .  S
C2797      C2798   1.373       .  A
C2797      H2809   1.082       .  S
N2813      H2845   1.041       .  S
N2813      C2817   1.351       .  A
N2814      C2821   1.357       .  A
N2814      C3822   1.356       .  A
N2815      H2846   1.041       .  S
N2815      C2819   1.354       .  A
N2816      C2823   1.354       .  A
N2816      C3824   1.354       .  A
C2817      C2825   1.387       .  A
C2817      C2833   1.411       .  A
C2818      C2834   1.410       .  A
C2819      C2827   1.387       .  A
C2819      C2836   1.417       .  A
C2820      C2835   1.417       .  A
C2821      C2833   1.418       .  A
C2821      C2829   1.382       .  A
C2822      N3814   1.356   1_545  A
C2822      C2836   1.421       .  A
C2822      C3830   1.384   1_545  A
C2823      C2831   1.382       .  A
C2823      C2834   1.414       .  A
C2824      N3816   1.354       .  A
C2824      C3832   1.383       .  A
C2824      C2835   1.415   1_565  A
C2825      C2826   1.372       .  A
C2825      H2837   1.082       .  S
C2827      C2828   1.376       .  A
C2827      H2839   1.082       .  S
C2829      C2830   1.367       .  A
C2829      H2841   1.075       .  S
C2830      C3822   1.384       .  A
C2830      H3842   1.072       .  S
C2831      C2832   1.364       .  A
C2831      H2843   1.073       .  S
C2832      C3824   1.383       .  A
C2832      H3844   1.073       .  S
H2842      C3830   1.072   1_545  S
H2844      C3832   1.073   1_545  S
N2847      H2879   1.042       .  S
N2847      C2851   1.360       .  A
N2848      C2855   1.354       .  A
N2849      H2880   1.037       .  S
N2849      C2853   1.360       .  A
N2850      C2857   1.355       .  A
C2851      C2859   1.382       .  A
C2851      C2867   1.418       .  A
C2852      C2868   1.421       .  A
C2853      C2861   1.387       .  A
C2853      C2870   1.428       .  A
C2854      C2869   1.430       .  A
C2855      C2867   1.415       .  A
C2855      C2863   1.382       .  A
C2856      C2870   1.425       .  A
C2857      C2865   1.383       .  A
C2857      C2868   1.420       .  A
C2858      C2869   1.431       .  A
C2859      C2860   1.366       .  A
C2859      H2871   1.076       .  S
C2861      C2862   1.367       .  A
C2861      H2873   1.082       .  S
C2863      C2864   1.366       .  A
C2863      H2875   1.082       .  S
C2865      C2866   1.368       .  A
C2865      H2877   1.081       .  S
C2881      C2882   1.412       .  A
C2881      C2886   1.408       .  A
C2881      F2888   1.358       .  S
C2882      C2883   1.409       .  A
C2883      C2884   1.395       .  A
C2883      F2890   1.358       .  S
C2884      C2885   1.407       .  A
C2884      F2889   1.358       .  S
C2885      C2886   1.412       .  A
C2886      F2887   1.358       .  S
C2891      C2892   1.409       .  A
C2891      C2896   1.403       .  A
C2891      F2898   1.358       .  S
C2892      C2893   1.406       .  A
C2893      C2894   1.397       .  A
C2893      F2900   1.358       .  S
C2894      C2895   1.408       .  A
C2894      F2899   1.358       .  S
C2895      C2896   1.409       .  A
C2896      F2897   1.358       .  S
C2901      C2902   1.409       .  A
C2901      C2906   1.403       .  A
C2901      F2908   1.358       .  S
C2902      C2903   1.406       .  A
C2903      C2904   1.400       .  A
C2903      F2910   1.358       .  S
C2904      C2905   1.410       .  A
C2904      F2909   1.358       .  S
C2905      C2906   1.410       .  A
C2906      F2907   1.358       .  S
C2911      C2912   1.405       .  A
C2911      C2916   1.397       .  A
C2911      F2918   1.358       .  S
C2912      C2913   1.403       .  A
C2913      C2914   1.399       .  A
C2913      F2920   1.359       .  S
C2914      C2915   1.413       .  A
C2914      F2919   1.358       .  S
C2915      C2916   1.408       .  A
C2916      F2917   1.357       .  S
C2921      C2922   1.408       .  A
C2921      C2926   1.402       .  A
C2921      F2928   1.358       .  S
C2922      C2923   1.407       .  A
C2923      C2924   1.397       .  A
C2923      F2930   1.359       .  S
C2924      C2925   1.408       .  A
C2924      F2929   1.358       .  S
C2925      C2926   1.410       .  A
C2926      F2927   1.358       .  S
C2931      C2932   1.408       .  A
C2931      C2936   1.389       .  A
C2931      F2938   1.359       .  S
C2932      C2933   1.408       .  A
C2933      C2934   1.399       .  A
C2933      F2940   1.358       .  S
C2934      C2935   1.409       .  A
C2934      F2939   1.357       .  S
C2935      C2936   1.409       .  A
C2936      F2937   1.359       .  S
C2941      C2942   1.404       .  A
C2941      C2946   1.398       .  A
C2941      F2948   1.358       .  S
C2942      C2943   1.408       .  A
C2943      C2944   1.403       .  A
C2943      F2950   1.358       .  S
C2944      C2945   1.410       .  A
C2944      F2949   1.358       .  S
C2945      C2946   1.413       .  A
C2946      F2947   1.358       .  S
C2951      C2952   1.408       .  A
C2951      C2956   1.398       .  A
C2951      F2958   1.358       .  S
C2952      C2953   1.409       .  A
C2953      C2954   1.401       .  A
C2953      F2960   1.358       .  S
C2954      C2955   1.407       .  A
C2954      F2959   1.358       .  S
C2955      C2956   1.407       .  A
C2956      F2957   1.359       .  S
C2961      C2962   1.407       .  A
C2961      C2966   1.395       .  A
C2961      F2968   1.358       .  S
C2962      C2963   1.414       .  A
C2963      C2964   1.411       .  A
C2963      F2970   1.358       .  S
C2964      C2965   1.412       .  A
C2964      F2969   1.358       .  S
C2965      C2966   1.411       .  A
C2966      F2967   1.358       .  S
C2971      C2972   1.410       .  A
C2971      C2976   1.403       .  A
C2971      F2978   1.358       .  S
C2972      C2973   1.409       .  A
C2973      C2974   1.397       .  A
C2973      F2980   1.358       .  S
C2974      C2975   1.409       .  A
C2974      F2979   1.359       .  S
C2975      C2976   1.408       .  A
C2976      F2977   1.358       .  S
C2981      C2982   1.410       .  A
C2981      C2986   1.402       .  A
C2981      F2988   1.358       .  S
C2982      C2983   1.411       .  A
C2983      C2984   1.400       .  A
C2983      F2990   1.358       .  S
C2984      C2985   1.407       .  A
C2984      F2989   1.358       .  S
C2985      C2986   1.408       .  A
C2986      F2987   1.358       .  S
C2991      C2992   1.405       .  A
C2991      C2996   1.396       .  A
C2991      F2998   1.358       .  S
C2992      C2993   1.407       .  A
C2993      C2994   1.396       .  A
C2993      F3000   1.359       .  S
C2994      C2995   1.406       .  A
C2994      F2999   1.359       .  S
C2995      C2996   1.407       .  A
C2996      F2997   1.358       .  S
O3001     Cr3019   2.001       .  S
O3001      C3009   1.267       .  A
O3002     Cr3019   1.983       .  S
O3002      C3003   1.260       .  A
C3003      O3004   1.264       .  A
C3003      C3472   1.487       .  S
O3004     Cr3020   2.000       .  S
O3005     Cr3020   1.988       .  S
O3005      C3006   1.263       .  A
C3006      O3007   1.267       .  A
C3006      C3482   1.490       .  S
O3007     Cr3021   2.008       .  S
O3008     Cr3021   1.965       .  S
O3008      C3009   1.260       .  A
C3009      C3495   1.473       .  S
O3010     Cr3019   1.976       .  S
O3010      C3018   1.257       .  A
O3011     Cr3019   2.009       .  S
O3011      C3012   1.266       .  A
C3012      O3013   1.260       .  A
C3012      C3233   1.490       .  S
O3013     Cr3020   1.976       .  S
O3014     Cr3020   2.012       .  S
O3014      C3015   1.264       .  A
C3015      O3016   1.260       .  A
C3015      C3333   1.492       .  S
O3016     Cr3021   1.978       .  S
O3017     Cr3021   2.015       .  S
O3017      C3018   1.263       .  A
C3018      C3367   1.502       .  S
Cr3019     O3022   1.773       .  S
Cr3020     O3022   1.772       .  S
Cr3021     O3022   1.771       .  S
O3023     Cr3041   1.978       .  S
O3023      C3031   1.260       .  A
O3024     Cr3041   1.992       .  S
O3024      C3025   1.263       .  A
C3025      O3026   1.261       .  A
C3025      C3492   1.472       .  S
O3026     Cr3042   1.979       .  S
O3027     Cr3042   2.015       .  S
O3027      C3028   1.270       .  A
C3028      O3029   1.262       .  A
C3028      C3462   1.497       .  S
O3029     Cr3043   1.990       .  S
O3030     Cr3043   2.000       .  S
O3030      C3031   1.265       .  A
C3031      C3455   1.480       .  S
O3032     Cr3041   2.012       .  S
O3032      C3040   1.265       .  A
O3033     Cr3041   1.972       .  S
O3033      C3034   1.257       .  A
C3034      O3035   1.268       .  A
C3034      C3300   1.498       .  S
O3035     Cr3042   2.024       .  S
O3036     Cr3042   1.981       .  S
O3036      C3037   1.260       .  A
C3037      O3038   1.265       .  A
C3037      C3336   1.498       .  S
O3038     Cr3043   2.014       .  S
O3039     Cr3043   1.986       .  S
O3039      C3040   1.261       .  A
C3040      C3234   1.497       .  S
Cr3041     O3044   1.774       .  S
Cr3042     O3044   1.773       .  S
Cr3043     O3044   1.773       .  S
O3045     Cr3063   2.004       .  S
O3045      C3053   1.270       .  A
O3046     Cr3063   1.981       .  S
O3046      C3047   1.262       .  A
C3047      O3048   1.265       .  A
C3047      C3442   1.483       .  S
O3048     Cr3064   2.002       .  S
O3049     Cr3064   1.978       .  S
O3049      C3050   1.259       .  A
C3050      O3051   1.260       .  A
C3050      C3432   1.478       .  S
O3051     Cr3065   1.985       .  S
O3052     Cr3065   1.997       .  S
O3052      C3053   1.268       .  A
C3053      C3465   1.496       .  S
O3054     Cr3063   1.978       .  S
O3054      C3062   1.258       .  A
O3055     Cr3063   2.012       .  S
O3055      C3056   1.265       .  A
C3056      O3057   1.257       .  A
C3056      C3301   1.498       .  S
O3057     Cr3064   1.973       .  S
O3058     Cr3064   2.012       .  S
O3058      C3059   1.268       .  A
C3059      O3060   1.266       .  A
C3059      C3231   1.492       .  S
O3060     Cr3065   1.988       .  S
O3061     Cr3065   1.992       .  S
O3061      C3062   1.254       .  A
C3062      C3266   1.494       .  S
Cr3063     O3066   1.765       .  S
Cr3064     O3066   1.771       .  S
Cr3065     O3066   1.778       .  S
O3067     Cr3085   1.999       .  S
O3067      C3075   1.264       .  A
O3068     Cr3085   1.978       .  S
O3068      C3069   1.263       .  A
C3069      O3070   1.270       .  A
C3069      C3485   1.485       .  S
O3070     Cr3086   2.013       .  S
O3071     Cr3086   1.978       .  S
O3071      C3072   1.259       .  A
C3072      O3073   1.265       .  A
C3072      C3425   1.485       .  S
O3073     Cr3087   2.000       .  S
O3074     Cr3087   1.992       .  S
O3074      C3075   1.263       .  A
C3075      C3445   1.491       .  S
O3076     Cr3085   1.980       .  S
O3076      C3084   1.261       .  A
O3077     Cr3085   2.006       .  S
O3077      C3078   1.261       .  A
C3078      O3079   1.258       .  A
C3078      C3265   1.492       .  S
O3079     Cr3086   1.982       .  S
O3080     Cr3086   2.013       .  S
O3080      C3081   1.266       .  A
C3081      O3082   1.262       .  A
C3081      C3232   1.518       .  S
O3082     Cr3087   1.983       .  S
O3083     Cr3087   2.013       .  S
O3083      C3084   1.264       .  A
C3084      C3370   1.505       .  S
Cr3085     O3088   1.770       .  S
Cr3086     O3088   1.773       .  S
Cr3087     O3088   1.775       .  S
O3089     Cr3107   1.986       .  S
O3089      C3097   1.264       .  A
O3090     Cr3107   2.007       .  S
O3090      C3091   1.265       .  A
C3091      O3092   1.262       .  A
C3091      C3405   1.490       .  S
O3092     Cr3108   1.986       .  S
O3093     Cr3108   2.000       .  S
O3093      C3094   1.266       .  A
C3094      O3095   1.261       .  A
C3094      C3422   1.483       .  S
O3095     Cr3109   1.982       .  S
O3096     Cr3109   2.003       .  S
O3096      C3097   1.266       .  A
C3097      C3415   1.486       .  S
O3098     Cr3107   2.010       .  S
O3098      C3106   1.264       .  A
O3099     Cr3107   1.990       .  S
O3099      C3100   1.263       .  A
C3100      O3101   1.263       .  A
C3100      C3369   1.515       .  S
O3101     Cr3108   2.014       .  S
O3102     Cr3108   1.985       .  S
O3102      C3103   1.261       .  A
C3103      O3104   1.262       .  A
C3103      C3200   1.514       .  S
O3104     Cr3109   2.002       .  S
O3105     Cr3109   1.979       .  S
O3105      C3106   1.259       .  A
C3106      C3268   1.490       .  S
Cr3107     O3110   1.769       .  S
Cr3108     O3110   1.770       .  S
Cr3109     O3110   1.773       .  S
O3111     Cr3129   1.974       .  S
O3111      C3119   1.261       .  A
O3112     Cr3129   1.998       .  S
O3112      C3113   1.265       .  A
C3113      O3114   1.261       .  A
C3113      C3412   1.472       .  S
O3114     Cr3130   1.974       .  S
O3115     Cr3130   1.994       .  S
O3115      C3116   1.263       .  A
C3116      O3117   1.262       .  A
C3116      C3475   1.486       .  S
O3117     Cr3131   1.987       .  S
O3118     Cr3131   2.006       .  S
O3118      C3119   1.269       .  A
C3119      C3392   1.482       .  S
O3120     Cr3129   2.015       .  S
O3120      C3128   1.263       .  A
O3121     Cr3129   1.977       .  S
O3121      C3122   1.259       .  A
C3122      O3123   1.262       .  A
C3122      C3334   1.486       .  S
O3123     Cr3130   2.002       .  S
O3124     Cr3130   1.966       .  S
O3124      C3125   1.257       .  A
C3125      O3126   1.267       .  A
C3125      C3197   1.486       .  S
O3126     Cr3131   2.012       .  S
O3127     Cr3131   1.977       .  S
O3127      C3128   1.256       .  A
C3128      C3368   1.503       .  S
Cr3129     O3132   1.774       .  S
Cr3130     O3132   1.773       .  S
Cr3131     O3132   1.771       .  S
O3133     Cr3151   1.979       .  S
O3133      C3141   1.262       .  A
O3134     Cr3151   2.010       .  S
O3134      C3135   1.269       .  A
C3135      O3136   1.264       .  A
C3135      C3382   1.491       .  S
O3136     Cr3152   1.987       .  S
O3137     Cr3152   1.987       .  S
O3137      C3138   1.263       .  A
C3138      O3139   1.261       .  A
C3138      C3435   1.481       .  S
O3139     Cr3153   1.980       .  S
O3140     Cr3153   2.009       .  S
O3140      C3141   1.267       .  A
C3141      C3402   1.486       .  S
O3142     Cr3151   2.018       .  S
O3142      C3150   1.265       .  A
O3143     Cr3151   1.971       .  S
O3143      C3144   1.258       .  A
C3144      O3145   1.257       .  A
C3144      C3267   1.492       .  S
O3145     Cr3152   1.993       .  S
O3146     Cr3152   1.985       .  S
O3146      C3147   1.263       .  A
C3147      O3148   1.266       .  A
C3147      C3199   1.491       .  S
O3148     Cr3153   2.009       .  S
O3149     Cr3153   1.982       .  S
O3149      C3150   1.259       .  A
C3150      C3302   1.499       .  S
Cr3151     O3154   1.764       .  S
Cr3152     O3154   1.775       .  S
Cr3153     O3154   1.769       .  S
O3155     Cr3173   2.006       .  S
O3155      C3163   1.268       .  A
O3156     Cr3173   1.981       .  S
O3156      C3157   1.261       .  A
C3157      O3158   1.267       .  A
C3157      C3452   1.485       .  S
O3158     Cr3174   2.007       .  S
O3159     Cr3174   1.984       .  S
O3159      C3160   1.261       .  A
C3160      O3161   1.267       .  A
C3160      C3385   1.490       .  S
O3161     Cr3175   2.006       .  S
O3162     Cr3175   1.984       .  S
O3162      C3163   1.263       .  A
C3163      C3395   1.485       .  S
O3164     Cr3173   1.982       .  S
O3164      C3172   1.260       .  A
O3165     Cr3173   2.018       .  S
O3165      C3166   1.265       .  A
C3166      O3167   1.260       .  A
C3166      C3198   1.502       .  S
O3167     Cr3174   1.984       .  S
O3168     Cr3174   2.015       .  S
O3168      C3169   1.266       .  A
C3169      O3170   1.257       .  A
C3169      C3335   1.492       .  S
O3170     Cr3175   1.972       .  S
O3171     Cr3175   2.013       .  S
O3171      C3172   1.264       .  A
C3172      C3299   1.496       .  S
Cr3173     O3176   1.773       .  S
Cr3174     O3176   1.776       .  S
Cr3175     O3176   1.776       .  S
N3177      H3209   1.041       .  S
N3177      C3181   1.350       .  A
N3178      C3185   1.352       .  A
N3179      H3210   1.043       .  S
N3179      C3183   1.358       .  A
N3180      C3187   1.358       .  A
C3181      C3189   1.388       .  A
C3181      C3197   1.413       .  A
C3182      C3198   1.415       .  A
C3183      C3191   1.392       .  A
C3183      C3200   1.426       .  A
C3184      C3199   1.413       .  A
C3185      C3197   1.412       .  A
C3185      C3193   1.380       .  A
C3186      C3200   1.420       .  A
C3187      C3195   1.381       .  A
C3187      C3198   1.417       .  A
C3188      C3199   1.418       .  A
C3189      C3190   1.377       .  A
C3189      H3201   1.082       .  S
C3191      C3192   1.377       .  A
C3191      H3203   1.079       .  S
C3193      C3194   1.367       .  A
C3193      H3205   1.072       .  S
C3195      C3196   1.366       .  A
C3195      H3207   1.074       .  S
N3211      C3216   1.358       .  A
N3212      C3219   1.354       .  A
N3212      C3220   1.356       .  A
N3213      H3244   1.041       .  S
N3213      C3218   1.350       .  A
N3214      C3221   1.359       .  A
N3214      C3222   1.354       .  A
C3215      C3231   1.412       .  A
C3216      C3232   1.424       .  A
C3216      C3224   1.390       .  A
C3217      C3234   1.415       .  A
C3218      C3233   1.413       .  A
C3218      C3226   1.388       .  A
C3219      C3227   1.382       .  A
C3220      C3234   1.419       .  A
C3220      C3228   1.382       .  A
C3221      C3229   1.387       .  A
C3222      C3230   1.379       .  A
C3222      C3233   1.416       .  A
C3223      C3224   1.377       .  A
C3224      H3236   1.080       .  S
C3225      C3226   1.377       .  A
C3226      H3238   1.082       .  S
C3227      C3228   1.370       .  A
C3228      H3240   1.073       .  S
C3229      C3230   1.366       .  A
C3230      H3242   1.070       .  S
N3245      H3277   1.041       .  S
N3245      C3249   1.354       .  A
N3246      C3253   1.354       .  A
N3246      C3754   1.354       .  A
N3247      H3278   1.041       .  S
N3247      C3251   1.354       .  A
N3248      C3255   1.352       .  A
N3248      C3756   1.352       .  A
C3249      C3257   1.384       .  A
C3249      C3265   1.412       .  A
C3250      C3266   1.419       .  A
C3251      C3259   1.383       .  A
C3251      C3268   1.411       .  A
C3252      C3267   1.419       .  A
C3253      C3265   1.414       .  A
C3253      C3261   1.382       .  A
C3254      N3746   1.354       .  A
C3254      C3268   1.412   1_556  A
C3254      C3762   1.381       .  A
C3255      C3263   1.386       .  A
C3255      C3266   1.413       .  A
C3256      N3748   1.352       .  A
C3256      C3764   1.387       .  A
C3256      C3267   1.415   1_556  A
C3257      C3258   1.372       .  A
C3257      H3269   1.082       .  S
C3259      C3260   1.369       .  A
C3259      H3271   1.082       .  S
C3261      C3262   1.366       .  A
C3261      H3273   1.074       .  S
C3262      C3754   1.381       .  A
C3262      H3774   1.074       .  S
C3263      C3264   1.360       .  A
C3263      H3275   1.081       .  S
C3264      C3756   1.387       .  A
C3264      H3776   1.081       .  S
H3274      C3762   1.074   1_554  S
H3276      C3764   1.081   1_554  S
N3279      H3311   1.046       .  S
N3279      C3284   1.356       .  A
N3279      C3783   1.355       .  A
N3280      C3287   1.353       .  A
N3281      H3312   1.046       .  S
N3281      C3286   1.355       .  A
N3281      C3785   1.357       .  A
N3282      C3289   1.354       .  A
C3283      N3779   1.355   1_554  A
C3283      C3791   1.384   1_554  A
C3283      C3299   1.418       .  A
C3284      C3300   1.417       .  A
C3284      C3292   1.384       .  A
C3285      N3781   1.357       .  A
C3285      C3793   1.383       .  A
C3285      C3302   1.417   1_556  A
C3286      C3301   1.420       .  A
C3286      C3294   1.386       .  A
C3287      C3299   1.414       .  A
C3287      C3295   1.386       .  A
C3288      C3302   1.414       .  A
C3289      C3297   1.386       .  A
C3289      C3300   1.418       .  A
C3290      C3301   1.419       .  A
C3291      C3783   1.384       .  A
C3291      C3292   1.370       .  A
C3291      H3803   1.073       .  S
C3292      H3304   1.076       .  S
C3293      C3785   1.383       .  A
C3293      C3294   1.374       .  A
C3293      H3805   1.077       .  S
C3294      H3306   1.075       .  S
C3295      C3296   1.371       .  A
C3295      H3307   1.082       .  S
C3297      C3298   1.373       .  A
C3297      H3309   1.082       .  S
H3303      C3791   1.073   1_554  S
H3305      C3793   1.077   1_554  S
N3313      H3345   1.041       .  S
N3313      C3818   1.351       .  A
N3313      C3317   1.351       .  A
N3314      C3321   1.357       .  A
N3315      H3346   1.041       .  S
N3315      C3820   1.354       .  A
N3315      C3319   1.354       .  A
N3316      C3323   1.354       .  A
C3317      C3325   1.387       .  A
C3317      C3333   1.411       .  A
C3318      N3813   1.351       .  A
C3318      C3334   1.410   1_556  A
C3318      C3826   1.387       .  A
C3319      C3327   1.387       .  A
C3319      C3336   1.417       .  A
C3320      N3815   1.354   1_554  A
C3320      C3335   1.417       .  A
C3320      C3828   1.387   1_554  A
C3321      C3333   1.418       .  A
C3321      C3329   1.382       .  A
C3322      C3336   1.421       .  A
C3323      C3331   1.382       .  A
C3323      C3334   1.414       .  A
C3324      C3335   1.415       .  A
C3325      C3326   1.372       .  A
C3325      H3337   1.082       .  S
C3326      C3818   1.387       .  A
C3326      H3838   1.082       .  S
C3327      C3328   1.376       .  A
C3327      H3339   1.082       .  S
C3328      C3820   1.387       .  A
C3328      H3840   1.082       .  S
C3329      C3330   1.367       .  A
C3329      H3341   1.075       .  S
C3331      C3332   1.364       .  A
C3331      H3343   1.073       .  S
H3338      C3826   1.082   1_554  S
H3340      C3828   1.082   1_554  S
N3347      H3379   1.042       .  S
N3347      C3852   1.357       .  A
N3347      C3351   1.360       .  A
N3348      C3355   1.354       .  A
N3349      H3380   1.037       .  S
N3349      C3854   1.362       .  A
N3349      C3353   1.360       .  A
N3350      C3357   1.355       .  A
C3351      C3359   1.382       .  A
C3351      C3367   1.418       .  A
C3352      N3847   1.358       .  A
C3352      C3368   1.421   1_556  A
C3352      C3860   1.384       .  A
C3353      C3361   1.387       .  A
C3353      C3370   1.428       .  A
C3354      N3849   1.362       .  A
C3354      C3369   1.430   1_556  A
C3354      C3862   1.387       .  A
C3355      C3367   1.415       .  A
C3355      C3363   1.382       .  A
C3356      C3370   1.425       .  A
C3357      C3365   1.383       .  A
C3357      C3368   1.420       .  A
C3358      C3369   1.431       .  A
C3359      C3360   1.366       .  A
C3359      H3371   1.076       .  S
C3360      C3852   1.384       .  A
C3360      H3872   1.072       .  S
C3361      C3362   1.367       .  A
C3361      H3373   1.082       .  S
C3362      C3854   1.387       .  A
C3362      H3874   1.081       .  S
C3363      C3364   1.366       .  A
C3363      H3375   1.082       .  S
C3365      C3366   1.368       .  A
C3365      H3377   1.081       .  S
H3372      C3860   1.072   1_554  S
H3374      C3862   1.081   1_554  S
C3381      C3382   1.412       .  A
C3381      C3386   1.408       .  A
C3381      F3388   1.358       .  S
C3382      C3383   1.409       .  A
C3383      C3384   1.395       .  A
C3383      F3390   1.358       .  S
C3384      C3385   1.407       .  A
C3384      F3389   1.358       .  S
C3385      C3386   1.412       .  A
C3386      F3387   1.358       .  S
C3391      C3392   1.409       .  A
C3391      C3396   1.403       .  A
C3391      F3398   1.358       .  S
C3392      C3393   1.406       .  A
C3393      C3394   1.397       .  A
C3393      F3400   1.358       .  S
C3394      C3395   1.408       .  A
C3394      F3399   1.358       .  S
C3395      C3396   1.409       .  A
C3396      F3397   1.358       .  S
C3401      C3402   1.409       .  A
C3401      C3406   1.403       .  A
C3401      F3408   1.358       .  S
C3402      C3403   1.407       .  A
C3403      C3404   1.400       .  A
C3403      F3410   1.358       .  S
C3404      C3405   1.410       .  A
C3404      F3409   1.358       .  S
C3405      C3406   1.410       .  A
C3406      F3407   1.358       .  S
C3411      C3412   1.405       .  A
C3411      C3416   1.397       .  A
C3411      F3418   1.358       .  S
C3412      C3413   1.403       .  A
C3413      C3414   1.399       .  A
C3413      F3420   1.359       .  S
C3414      C3415   1.413       .  A
C3414      F3419   1.358       .  S
C3415      C3416   1.408       .  A
C3416      F3417   1.357       .  S
C3421      C3422   1.408       .  A
C3421      C3426   1.402       .  A
C3421      F3428   1.358       .  S
C3422      C3423   1.407       .  A
C3423      C3424   1.397       .  A
C3423      F3430   1.359       .  S
C3424      C3425   1.408       .  A
C3424      F3429   1.358       .  S
C3425      C3426   1.410       .  A
C3426      F3427   1.358       .  S
C3431      C3432   1.408       .  A
C3431      C3436   1.389       .  A
C3431      F3438   1.359       .  S
C3432      C3433   1.408       .  A
C3433      C3434   1.399       .  A
C3433      F3440   1.358       .  S
C3434      C3435   1.409       .  A
C3434      F3439   1.357       .  S
C3435      C3436   1.409       .  A
C3436      F3437   1.359       .  S
C3441      C3442   1.404       .  A
C3441      C3446   1.398       .  A
C3441      F3448   1.358       .  S
C3442      C3443   1.408       .  A
C3443      C3444   1.403       .  A
C3443      F3450   1.358       .  S
C3444      C3445   1.410       .  A
C3444      F3449   1.358       .  S
C3445      C3446   1.414       .  A
C3446      F3447   1.358       .  S
C3451      C3452   1.408       .  A
C3451      C3456   1.398       .  A
C3451      F3458   1.358       .  S
C3452      C3453   1.409       .  A
C3453      C3454   1.401       .  A
C3453      F3460   1.358       .  S
C3454      C3455   1.407       .  A
C3454      F3459   1.358       .  S
C3455      C3456   1.407       .  A
C3456      F3457   1.359       .  S
C3461      C3462   1.407       .  A
C3461      C3466   1.395       .  A
C3461      F3468   1.358       .  S
C3462      C3463   1.414       .  A
C3463      C3464   1.411       .  A
C3463      F3470   1.358       .  S
C3464      C3465   1.412       .  A
C3464      F3469   1.358       .  S
C3465      C3466   1.411       .  A
C3466      F3467   1.358       .  S
C3471      C3472   1.410       .  A
C3471      C3476   1.403       .  A
C3471      F3478   1.358       .  S
C3472      C3473   1.409       .  A
C3473      C3474   1.397       .  A
C3473      F3480   1.358       .  S
C3474      C3475   1.409       .  A
C3474      F3479   1.359       .  S
C3475      C3476   1.408       .  A
C3476      F3477   1.358       .  S
C3481      C3482   1.410       .  A
C3481      C3486   1.402       .  A
C3481      F3488   1.358       .  S
C3482      C3483   1.411       .  A
C3483      C3484   1.400       .  A
C3483      F3490   1.358       .  S
C3484      C3485   1.407       .  A
C3484      F3489   1.358       .  S
C3485      C3486   1.408       .  A
C3486      F3487   1.358       .  S
C3491      C3492   1.405       .  A
C3491      C3496   1.396       .  A
C3491      F3498   1.358       .  S
C3492      C3493   1.407       .  A
C3493      C3494   1.396       .  A
C3493      F3500   1.359       .  S
C3494      C3495   1.406       .  A
C3494      F3499   1.359       .  S
C3495      C3496   1.407       .  A
C3496      F3497   1.358       .  S
O3501     Cr3519   2.001       .  S
O3501      C3509   1.267       .  A
O3502     Cr3519   1.983       .  S
O3502      C3503   1.260       .  A
C3503      O3504   1.264       .  A
C3503      C3972   1.487       .  S
O3504     Cr3520   2.000       .  S
O3505     Cr3520   1.988       .  S
O3505      C3506   1.263       .  A
C3506      O3507   1.267       .  A
C3506      C3982   1.490       .  S
O3507     Cr3521   2.008       .  S
O3508     Cr3521   1.965       .  S
O3508      C3509   1.260       .  A
C3509      C3995   1.473       .  S
O3510     Cr3519   1.976       .  S
O3510      C3518   1.257       .  A
O3511     Cr3519   2.009       .  S
O3511      C3512   1.266       .  A
C3512      O3513   1.260       .  A
C3512      C3733   1.490       .  S
O3513     Cr3520   1.976       .  S
O3514     Cr3520   2.012       .  S
O3514      C3515   1.264       .  A
C3515      O3516   1.260       .  A
C3515      C3833   1.492       .  S
O3516     Cr3521   1.978       .  S
O3517     Cr3521   2.015       .  S
O3517      C3518   1.263       .  A
C3518      C3867   1.502       .  S
Cr3519     O3522   1.773       .  S
Cr3520     O3522   1.772       .  S
Cr3521     O3522   1.771       .  S
O3523     Cr3541   1.978       .  S
O3523      C3531   1.260       .  A
O3524     Cr3541   1.992       .  S
O3524      C3525   1.263       .  A
C3525      O3526   1.261       .  A
C3525      C3992   1.472       .  S
O3526     Cr3542   1.979       .  S
O3527     Cr3542   2.015       .  S
O3527      C3528   1.270       .  A
C3528      O3529   1.262       .  A
C3528      C3962   1.497       .  S
O3529     Cr3543   1.989       .  S
O3530     Cr3543   2.000       .  S
O3530      C3531   1.265       .  A
C3531      C3955   1.480       .  S
O3532     Cr3541   2.012       .  S
O3532      C3540   1.265       .  A
O3533     Cr3541   1.972       .  S
O3533      C3534   1.257       .  A
C3534      O3535   1.268       .  A
C3534      C3800   1.498       .  S
O3535     Cr3542   2.024       .  S
O3536     Cr3542   1.981       .  S
O3536      C3537   1.260       .  A
C3537      O3538   1.265       .  A
C3537      C3836   1.498       .  S
O3538     Cr3543   2.014       .  S
O3539     Cr3543   1.986       .  S
O3539      C3540   1.261       .  A
C3540      C3734   1.497       .  S
Cr3541     O3544   1.774       .  S
Cr3542     O3544   1.773       .  S
Cr3543     O3544   1.773       .  S
O3545     Cr3563   2.004       .  S
O3545      C3553   1.270       .  A
O3546     Cr3563   1.981       .  S
O3546      C3547   1.262       .  A
C3547      O3548   1.265       .  A
C3547      C3942   1.483       .  S
O3548     Cr3564   2.002       .  S
O3549     Cr3564   1.978       .  S
O3549      C3550   1.259       .  A
C3550      O3551   1.260       .  A
C3550      C3932   1.478       .  S
O3551     Cr3565   1.985       .  S
O3552     Cr3565   1.997       .  S
O3552      C3553   1.268       .  A
C3553      C3965   1.496       .  S
O3554     Cr3563   1.978       .  S
O3554      C3562   1.258       .  A
O3555     Cr3563   2.012       .  S
O3555      C3556   1.265       .  A
C3556      O3557   1.257       .  A
C3556      C3801   1.498       .  S
O3557     Cr3564   1.973       .  S
O3558     Cr3564   2.012       .  S
O3558      C3559   1.268       .  A
C3559      O3560   1.266       .  A
C3559      C3731   1.492       .  S
O3560     Cr3565   1.988       .  S
O3561     Cr3565   1.991       .  S
O3561      C3562   1.254       .  A
C3562      C3766   1.494       .  S
Cr3563     O3566   1.765       .  S
Cr3564     O3566   1.771       .  S
Cr3565     O3566   1.778       .  S
O3567     Cr3585   1.999       .  S
O3567      C3575   1.264       .  A
O3568     Cr3585   1.978       .  S
O3568      C3569   1.263       .  A
C3569      O3570   1.270       .  A
C3569      C3985   1.485       .  S
O3570     Cr3586   2.013       .  S
O3571     Cr3586   1.978       .  S
O3571      C3572   1.259       .  A
C3572      O3573   1.265       .  A
C3572      C3925   1.485       .  S
O3573     Cr3587   2.000       .  S
O3574     Cr3587   1.992       .  S
O3574      C3575   1.263       .  A
C3575      C3945   1.491       .  S
O3576     Cr3585   1.980       .  S
O3576      C3584   1.261       .  A
O3577     Cr3585   2.006       .  S
O3577      C3578   1.261       .  A
C3578      O3579   1.258       .  A
C3578      C3765   1.492       .  S
O3579     Cr3586   1.982       .  S
O3580     Cr3586   2.013       .  S
O3580      C3581   1.266       .  A
C3581      O3582   1.262       .  A
C3581      C3732   1.518       .  S
O3582     Cr3587   1.983       .  S
O3583     Cr3587   2.013       .  S
O3583      C3584   1.264       .  A
C3584      C3870   1.505       .  S
Cr3585     O3588   1.770       .  S
Cr3586     O3588   1.773       .  S
Cr3587     O3588   1.775       .  S
O3589     Cr3607   1.986       .  S
O3589      C3597   1.265       .  A
O3590     Cr3607   2.007       .  S
O3590      C3591   1.265       .  A
C3591      O3592   1.262       .  A
C3591      C3905   1.490       .  S
O3592     Cr3608   1.986       .  S
O3593     Cr3608   2.000       .  S
O3593      C3594   1.266       .  A
C3594      O3595   1.261       .  A
C3594      C3922   1.483       .  S
O3595     Cr3609   1.982       .  S
O3596     Cr3609   2.003       .  S
O3596      C3597   1.266       .  A
C3597      C3915   1.486       .  S
O3598     Cr3607   2.010       .  S
O3598      C3606   1.264       .  A
O3599     Cr3607   1.990       .  S
O3599      C3600   1.263       .  A
C3600      O3601   1.263       .  A
C3600      C3869   1.515       .  S
O3601     Cr3608   2.014       .  S
O3602     Cr3608   1.985       .  S
O3602      C3603   1.261       .  A
C3603      O3604   1.262       .  A
C3603      C3700   1.514       .  S
O3604     Cr3609   2.002       .  S
O3605     Cr3609   1.979       .  S
O3605      C3606   1.259       .  A
C3606      C3768   1.490       .  S
Cr3607     O3610   1.769       .  S
Cr3608     O3610   1.770       .  S
Cr3609     O3610   1.773       .  S
O3611     Cr3629   1.975       .  S
O3611      C3619   1.261       .  A
O3612     Cr3629   1.998       .  S
O3612      C3613   1.265       .  A
C3613      O3614   1.261       .  A
C3613      C3912   1.472       .  S
O3614     Cr3630   1.974       .  S
O3615     Cr3630   1.994       .  S
O3615      C3616   1.263       .  A
C3616      O3617   1.262       .  A
C3616      C3975   1.486       .  S
O3617     Cr3631   1.987       .  S
O3618     Cr3631   2.006       .  S
O3618      C3619   1.269       .  A
C3619      C3892   1.482       .  S
O3620     Cr3629   2.015       .  S
O3620      C3628   1.263       .  A
O3621     Cr3629   1.977       .  S
O3621      C3622   1.259       .  A
C3622      O3623   1.262       .  A
C3622      C3834   1.486       .  S
O3623     Cr3630   2.002       .  S
O3624     Cr3630   1.965       .  S
O3624      C3625   1.257       .  A
C3625      O3626   1.266       .  A
C3625      C3697   1.486       .  S
O3626     Cr3631   2.011       .  S
O3627     Cr3631   1.977       .  S
O3627      C3628   1.256       .  A
C3628      C3868   1.503       .  S
Cr3629     O3632   1.774       .  S
Cr3630     O3632   1.773       .  S
Cr3631     O3632   1.771       .  S
O3633     Cr3651   1.979       .  S
O3633      C3641   1.262       .  A
O3634     Cr3651   2.009       .  S
O3634      C3635   1.269       .  A
C3635      O3636   1.264       .  A
C3635      C3882   1.491       .  S
O3636     Cr3652   1.987       .  S
O3637     Cr3652   1.987       .  S
O3637      C3638   1.263       .  A
C3638      O3639   1.261       .  A
C3638      C3935   1.481       .  S
O3639     Cr3653   1.980       .  S
O3640     Cr3653   2.009       .  S
O3640      C3641   1.267       .  A
C3641      C3902   1.486       .  S
O3642     Cr3651   2.018       .  S
O3642      C3650   1.265       .  A
O3643     Cr3651   1.971       .  S
O3643      C3644   1.258       .  A
C3644      O3645   1.257       .  A
C3644      C3767   1.492       .  S
O3645     Cr3652   1.993       .  S
O3646     Cr3652   1.985       .  S
O3646      C3647   1.263       .  A
C3647      O3648   1.266       .  A
C3647      C3699   1.491       .  S
O3648     Cr3653   2.009       .  S
O3649     Cr3653   1.982       .  S
O3649      C3650   1.259       .  A
C3650      C3802   1.499       .  S
Cr3651     O3654   1.764       .  S
Cr3652     O3654   1.775       .  S
Cr3653     O3654   1.769       .  S
O3655     Cr3673   2.006       .  S
O3655      C3663   1.268       .  A
O3656     Cr3673   1.981       .  S
O3656      C3657   1.261       .  A
C3657      O3658   1.267       .  A
C3657      C3952   1.485       .  S
O3658     Cr3674   2.007       .  S
O3659     Cr3674   1.985       .  S
O3659      C3660   1.261       .  A
C3660      O3661   1.267       .  A
C3660      C3885   1.490       .  S
O3661     Cr3675   2.006       .  S
O3662     Cr3675   1.984       .  S
O3662      C3663   1.263       .  A
C3663      C3895   1.485       .  S
O3664     Cr3673   1.982       .  S
O3664      C3672   1.260       .  A
O3665     Cr3673   2.018       .  S
O3665      C3666   1.265       .  A
C3666      O3667   1.260       .  A
C3666      C3698   1.502       .  S
O3667     Cr3674   1.984       .  S
O3668     Cr3674   2.015       .  S
O3668      C3669   1.266       .  A
C3669      O3670   1.257       .  A
C3669      C3835   1.493       .  S
O3670     Cr3675   1.972       .  S
O3671     Cr3675   2.013       .  S
O3671      C3672   1.264       .  A
C3672      C3799   1.496       .  S
Cr3673     O3676   1.773       .  S
Cr3674     O3676   1.776       .  S
Cr3675     O3676   1.776       .  S
N3677      H3709   1.041       .  S
N3677      C3681   1.350       .  A
N3678      C3685   1.352       .  A
N3679      H3710   1.043       .  S
N3679      C3683   1.358       .  A
N3680      C3687   1.358       .  A
C3681      C3689   1.388       .  A
C3681      C3697   1.413       .  A
C3682      C3698   1.415       .  A
C3683      C3691   1.392       .  A
C3683      C3700   1.426       .  A
C3684      C3699   1.413       .  A
C3685      C3697   1.412       .  A
C3685      C3693   1.380       .  A
C3686      C3700   1.420       .  A
C3687      C3695   1.381       .  A
C3687      C3698   1.417       .  A
C3688      C3699   1.418       .  A
C3689      C3690   1.377       .  A
C3689      H3701   1.082       .  S
C3691      C3692   1.377       .  A
C3691      H3703   1.079       .  S
C3693      C3694   1.367       .  A
C3693      H3705   1.072       .  S
C3695      C3696   1.366       .  A
C3695      H3707   1.074       .  S
N3711      C3716   1.358       .  A
N3712      C3719   1.354       .  A
N3712      C3720   1.356       .  A
N3713      H3744   1.041       .  S
N3713      C3718   1.350       .  A
N3714      C3721   1.359       .  A
N3714      C3722   1.354       .  A
C3715      C3731   1.412       .  A
C3716      C3732   1.424       .  A
C3716      C3724   1.390       .  A
C3717      C3734   1.415       .  A
C3718      C3733   1.413       .  A
C3718      C3726   1.388       .  A
C3719      C3727   1.382       .  A
C3720      C3734   1.419       .  A
C3720      C3728   1.382       .  A
C3721      C3729   1.386       .  A
C3722      C3730   1.379       .  A
C3722      C3733   1.416       .  A
C3723      C3724   1.377       .  A
C3724      H3736   1.080       .  S
C3725      C3726   1.377       .  A
C3726      H3738   1.082       .  S
C3727      C3728   1.370       .  A
C3728      H3740   1.073       .  S
C3729      C3730   1.366       .  A
C3730      H3742   1.070       .  S
N3745      H3777   1.041       .  S
N3745      C3749   1.354       .  A
N3746      C3753   1.354       .  A
N3747      H3778   1.041       .  S
N3747      C3751   1.354       .  A
N3748      C3755   1.352       .  A
C3749      C3757   1.384       .  A
C3749      C3765   1.412       .  A
C3750      C3766   1.419       .  A
C3751      C3759   1.383       .  A
C3751      C3768   1.411       .  A
C3752      C3767   1.419       .  A
C3753      C3765   1.414       .  A
C3753      C3761   1.382       .  A
C3754      C3768   1.412       .  A
C3755      C3763   1.386       .  A
C3755      C3766   1.413       .  A
C3756      C3767   1.415       .  A
C3757      C3758   1.372       .  A
C3757      H3769   1.082       .  S
C3759      C3760   1.369       .  A
C3759      H3771   1.082       .  S
C3761      C3762   1.366       .  A
C3761      H3773   1.074       .  S
C3763      C3764   1.360       .  A
C3763      H3775   1.081       .  S
N3779      H3811   1.046       .  S
N3779      C3784   1.356       .  A
N3780      C3787   1.353       .  A
N3781      H3812   1.047       .  S
N3781      C3786   1.355       .  A
N3782      C3789   1.354       .  A
C3783      C3799   1.418       .  A
C3784      C3800   1.417       .  A
C3784      C3792   1.384       .  A
C3785      C3802   1.417       .  A
C3786      C3801   1.420       .  A
C3786      C3794   1.386       .  A
C3787      C3799   1.414       .  A
C3787      C3795   1.386       .  A
C3788      C3802   1.414       .  A
C3789      C3797   1.386       .  A
C3789      C3800   1.417       .  A
C3790      C3801   1.419       .  A
C3791      C3792   1.370       .  A
C3792      H3804   1.076       .  S
C3793      C3794   1.374       .  A
C3794      H3806   1.075       .  S
C3795      C3796   1.371       .  A
C3795      H3807   1.082       .  S
C3797      C3798   1.373       .  A
C3797      H3809   1.082       .  S
N3813      H3845   1.041       .  S
N3813      C3817   1.351       .  A
N3814      C3821   1.357       .  A
N3815      H3846   1.041       .  S
N3815      C3819   1.354       .  A
N3816      C3823   1.354       .  A
C3817      C3825   1.387       .  A
C3817      C3833   1.411       .  A
C3818      C3834   1.410       .  A
C3819      C3827   1.387       .  A
C3819      C3836   1.417       .  A
C3820      C3835   1.417       .  A
C3821      C3833   1.418       .  A
C3821      C3829   1.382       .  A
C3822      C3836   1.421       .  A
C3823      C3831   1.382       .  A
C3823      C3834   1.415       .  A
C3824      C3835   1.415       .  A
C3825      C3826   1.372       .  A
C3825      H3837   1.082       .  S
C3827      C3828   1.376       .  A
C3827      H3839   1.082       .  S
C3829      C3830   1.367       .  A
C3829      H3841   1.075       .  S
C3831      C3832   1.364       .  A
C3831      H3843   1.073       .  S
N3847      H3879   1.042       .  S
N3847      C3851   1.360       .  A
N3848      C3855   1.354       .  A
N3849      H3880   1.037       .  S
N3849      C3853   1.360       .  A
N3850      C3857   1.355       .  A
C3851      C3859   1.382       .  A
C3851      C3867   1.418       .  A
C3852      C3868   1.421       .  A
C3853      C3861   1.387       .  A
C3853      C3870   1.428       .  A
C3854      C3869   1.430       .  A
C3855      C3867   1.415       .  A
C3855      C3863   1.382       .  A
C3856      C3870   1.425       .  A
C3857      C3865   1.383       .  A
C3857      C3868   1.420       .  A
C3858      C3869   1.431       .  A
C3859      C3860   1.366       .  A
C3859      H3871   1.076       .  S
C3861      C3862   1.367       .  A
C3861      H3873   1.082       .  S
C3863      C3864   1.366       .  A
C3863      H3875   1.082       .  S
C3865      C3866   1.368       .  A
C3865      H3877   1.081       .  S
C3881      C3882   1.412       .  A
C3881      C3886   1.408       .  A
C3881      F3888   1.358       .  S
C3882      C3883   1.409       .  A
C3883      C3884   1.395       .  A
C3883      F3890   1.358       .  S
C3884      C3885   1.407       .  A
C3884      F3889   1.358       .  S
C3885      C3886   1.412       .  A
C3886      F3887   1.358       .  S
C3891      C3892   1.409       .  A
C3891      C3896   1.403       .  A
C3891      F3898   1.358       .  S
C3892      C3893   1.406       .  A
C3893      C3894   1.397       .  A
C3893      F3900   1.358       .  S
C3894      C3895   1.408       .  A
C3894      F3899   1.358       .  S
C3895      C3896   1.409       .  A
C3896      F3897   1.358       .  S
C3901      C3902   1.409       .  A
C3901      C3906   1.403       .  A
C3901      F3908   1.358       .  S
C3902      C3903   1.406       .  A
C3903      C3904   1.400       .  A
C3903      F3910   1.358       .  S
C3904      C3905   1.410       .  A
C3904      F3909   1.358       .  S
C3905      C3906   1.410       .  A
C3906      F3907   1.358       .  S
C3911      C3912   1.405       .  A
C3911      C3916   1.397       .  A
C3911      F3918   1.358       .  S
C3912      C3913   1.403       .  A
C3913      C3914   1.399       .  A
C3913      F3920   1.359       .  S
C3914      C3915   1.413       .  A
C3914      F3919   1.358       .  S
C3915      C3916   1.408       .  A
C3916      F3917   1.357       .  S
C3921      C3922   1.408       .  A
C3921      C3926   1.402       .  A
C3921      F3928   1.358       .  S
C3922      C3923   1.407       .  A
C3923      C3924   1.397       .  A
C3923      F3930   1.359       .  S
C3924      C3925   1.408       .  A
C3924      F3929   1.358       .  S
C3925      C3926   1.410       .  A
C3926      F3927   1.358       .  S
C3931      C3932   1.408       .  A
C3931      C3936   1.389       .  A
C3931      F3938   1.359       .  S
C3932      C3933   1.408       .  A
C3933      C3934   1.399       .  A
C3933      F3940   1.358       .  S
C3934      C3935   1.409       .  A
C3934      F3939   1.357       .  S
C3935      C3936   1.409       .  A
C3936      F3937   1.359       .  S
C3941      C3942   1.404       .  A
C3941      C3946   1.398       .  A
C3941      F3948   1.358       .  S
C3942      C3943   1.408       .  A
C3943      C3944   1.403       .  A
C3943      F3950   1.358       .  S
C3944      C3945   1.410       .  A
C3944      F3949   1.358       .  S
C3945      C3946   1.413       .  A
C3946      F3947   1.358       .  S
C3951      C3952   1.408       .  A
C3951      C3956   1.398       .  A
C3951      F3958   1.358       .  S
C3952      C3953   1.409       .  A
C3953      C3954   1.401       .  A
C3953      F3960   1.357       .  S
C3954      C3955   1.407       .  A
C3954      F3959   1.358       .  S
C3955      C3956   1.407       .  A
C3956      F3957   1.359       .  S
C3961      C3962   1.407       .  A
C3961      C3966   1.395       .  A
C3961      F3968   1.358       .  S
C3962      C3963   1.414       .  A
C3963      C3964   1.411       .  A
C3963      F3970   1.358       .  S
C3964      C3965   1.412       .  A
C3964      F3969   1.358       .  S
C3965      C3966   1.411       .  A
C3966      F3967   1.358       .  S
C3971      C3972   1.410       .  A
C3971      C3976   1.403       .  A
C3971      F3978   1.358       .  S
C3972      C3973   1.409       .  A
C3973      C3974   1.397       .  A
C3973      F3980   1.358       .  S
C3974      C3975   1.409       .  A
C3974      F3979   1.359       .  S
C3975      C3976   1.408       .  A
C3976      F3977   1.358       .  S
C3981      C3982   1.410       .  A
C3981      C3986   1.402       .  A
C3981      F3988   1.358       .  S
C3982      C3983   1.411       .  A
C3983      C3984   1.400       .  A
C3983      F3990   1.358       .  S
C3984      C3985   1.407       .  A
C3984      F3989   1.358       .  S
C3985      C3986   1.408       .  A
C3986      F3987   1.358       .  S
C3991      C3992   1.405       .  A
C3991      C3996   1.396       .  A
C3991      F3998   1.358       .  S
C3992      C3993   1.407       .  A
C3993      C3994   1.396       .  A
C3993      F4000   1.359       .  S
C3994      C3995   1.406       .  A
C3994      F3999   1.359       .  S
C3995      C3996   1.407       .  A
C3996      F3997   1.358       .  S
