geometry optimzed in LAMMPS
_audit_creation_date              2020-11-30 
_audit_creation_method            'lammps2cif' 
_symmetry_space_group_name_H-M    'P1' 
_symmetry_Int_Tables_number       1 
_symmetry_cell_setting            triclinic 
loop_ 
_symmetry_equiv_pos_as_xyz 
  x,y,z 
_cell_length_a                    21.153021890258216 
_cell_length_b                    20.548175424169834 
_cell_length_c                    21.657033655840998 
_cell_angle_alpha                 89.91733402073348 
_cell_angle_beta                  89.10757155038377 
_cell_angle_gamma                 89.41770817812358 
loop_ 
_atom_site_label 
_atom_site_type_symbol 
_atom_site_fract_x 
_atom_site_fract_y 
_atom_site_fract_z 
_atom_site_charge 
N1          N  0.42307769  0.61479749  0.43128367    -0.06540
N2          N  0.40719782  0.65962830  0.39038534    -0.58660
N3          N  0.38275920  0.57232259  0.57553446    -0.06220
N4          N  0.34052254  0.58571893  0.61936473    -0.60790
N5          N  0.42584072  0.61804049  0.57273511    -0.05820
N6          N  0.41384699  0.66338962  0.61456578    -0.58640
N7          N  0.37986780  0.56927030  0.43396387    -0.05500
N8          N  0.33414122  0.58216383  0.39489881    -0.61140
C9          C  0.35174047  0.63844094  0.36748772     0.95630
C10         C  0.36114314  0.64200106  0.64391280     0.95410
N11         N  0.42690229  0.37158586  0.57587177    -0.06730
N12         N  0.41307799  0.32605446  0.61678330    -0.59240
N13         N  0.38163988  0.41510529  0.43688614    -0.04850
N14         N  0.33633877  0.40079433  0.39824323    -0.60490
N15         N  0.42576452  0.36943412  0.43574283    -0.06760
N16         N  0.41102569  0.32284090  0.39659213    -0.59510
N17         N  0.38379249  0.41817429  0.57738388    -0.04490
N18         N  0.33997014  0.40546807  0.61948258    -0.60580
Mn19       Mn  0.38064262  0.49383763  0.50606633     1.18440
C20         C  0.35917598  0.34829964  0.64414447     0.97720
C21         C  0.35499191  0.34310559  0.37374577     0.98380
N22         N  0.57441488  0.61831124  0.56967064    -0.06780
N23         N  0.58699700  0.66374609  0.61076300    -0.63090
N24         N  0.61844783  0.56780510  0.42967352    -0.05580
N25         N  0.66182631  0.57772955  0.38641247    -0.63760
N26         N  0.57391189  0.61288555  0.42726885    -0.06280
N27         N  0.58624534  0.65443700  0.38206046    -0.63350
N28         N  0.61754182  0.57186116  0.57115939    -0.05180
N29         N  0.66030164  0.58485588  0.61288059    -0.64040
Mn30       Mn  0.49937641  0.61791833  0.49980727     1.10660
C31         C  0.64078155  0.64221585  0.63760844     0.98940
C32         C  0.64065847  0.63108213  0.35631826     0.99010
N33         N  0.57717812  0.37092809  0.43285958    -0.06290
N34         N  0.59142346  0.32696512  0.39035464    -0.61670
N35         N  0.61828377  0.41706961  0.57437234    -0.05610
N36         N  0.66133965  0.40367035  0.61606710    -0.58390
N37         N  0.57540203  0.37119399  0.57384276    -0.06920
N38         N  0.58839675  0.32584300  0.61505667    -0.61230
N39         N  0.62081302  0.41603967  0.43368634    -0.05910
N40         N  0.66544470  0.40384606  0.39204178    -0.58420
Mn41       Mn  0.50144322  0.36915944  0.50414666     1.20190
Mn42       Mn  0.62023504  0.49335269  0.50268847     1.10090
Cl43       Cl  0.50034515  0.49354694  0.50295635    -0.86390
C44         C  0.64628131  0.34854226  0.36490280     0.95940
C45         C  0.64198305  0.34672768  0.64138817     0.95740
C46         C  0.80198758  0.78826499  0.81032003    -0.02910
C47         C  0.80035330  0.19982379  0.81657893    -0.02910
C48         C  0.20061394  0.80035465  0.81461699    -0.02910
C49         C  0.18425072  0.19431909  0.79894516    -0.02910
C50         C  0.95606029  0.99224247  0.70410698     0.00140
C51         C  0.02242542  0.99589462  0.70830831     0.00140
C52         C  0.80011216  0.79854141  0.19837192    -0.02910
C53         C  0.18978384  0.80196635  0.20611793    -0.02910
C54         C  0.96759178  0.68950228  0.00154050     0.00140
C55         C  0.03351644  0.68989471  0.00902984     0.00140
C56         C  0.18920690  0.21925149  0.18993962    -0.02910
C57         C  0.96973399  0.99831037  0.28832993     0.00140
C58         C  0.03403970  0.00348243  0.30136213     0.00140
C59         C  0.29088193  0.03683541  0.99696876     0.00140
C60         C  0.29959538  0.97029371  0.00858628     0.00140
C61         C  0.96821665  0.30925811  0.00152168     0.00140
C62         C  0.03342762  0.31888886  0.00188951     0.00140
C63         C  0.80123349  0.19766120  0.18696658    -0.02910
C64         C  0.68646694  0.96372660  0.01004253     0.00140
C65         C  0.68094989  0.03151741  0.00429967     0.00140
C66         C  0.72122237  0.10718189  0.16195151    -0.26740
C67         C  0.75577103  0.16227864  0.14055358    -0.14810
C68         C  0.73928736  0.18467393  0.08097511     0.35820
C69         C  0.70082296  0.14690772  0.04349089    -0.26190
C70         C  0.68485459  0.08182851  0.05818072    -0.15430
C71         C  0.68447895  0.06868216  0.12227432     0.36900
N72         N  0.64068282  0.02371054  0.14885053    -0.89680
H73         H  0.72210525  0.09426539  0.21044549     0.18010
H74         H  0.68923295  0.16788421  0.99946167     0.18010
N75         N  0.75964693  0.24559588  0.05684891    -0.88710
H76         H  0.60745888  0.05054224  0.17473477     0.35380
H77         H  0.66514032  0.99456896  0.18029547     0.40480
H78         H  0.71982247  0.27371951  0.04613070     0.40100
H79         H  0.78546647  0.23688842  0.01608544     0.34990
C80         C  0.94801388  0.23673566  0.09037781    -0.26740
C81         C  0.93145629  0.29372783  0.05931202    -0.14810
C82         C  0.88102669  0.33200497  0.08456524     0.35820
C83         C  0.84056978  0.30442392  0.13033757    -0.26190
C84         C  0.85349313  0.24163791  0.15419742    -0.15430
C85         C  0.91800003  0.22205099  0.14590498     0.36900
N86         N  0.95904025  0.20985584  0.19705780    -0.89680
H87         H  0.99190566  0.21192787  0.07846578     0.18010
H88         H  0.79747250  0.32997030  0.14367289     0.18010
N89         N  0.87176817  0.39816241  0.06584862    -0.88710
H90         H  0.98753357  0.16911825  0.18836009     0.35380
H91         H  0.93511121  0.20486196  0.23904374     0.40480
H92         H  0.87775440  0.42750668  0.10467057     0.40100
H93         H  0.82477910  0.40386295  0.05235053     0.34990
C94         C  0.87254664  0.09916311  0.17920458    -0.26740
C95         C  0.83698040  0.14020739  0.21895017    -0.14810
C96         C  0.84086114  0.12744226  0.28327016     0.35820
C97         C  0.88883898  0.08560030  0.30505597    -0.26190
C98         C  0.93189901  0.05448074  0.26437131    -0.15430
C99         C  0.92386398  0.06336667  0.20007704     0.36900
N100        N  0.97160805  0.04743750  0.15458391    -0.89680
H101        H  0.86793326  0.10438254  0.12960803     0.18010
H102        H  0.89108625  0.07546455  0.35410241     0.18010
N103        N  0.79437409  0.15185202  0.32620051    -0.88710
H104        H  0.95312699  0.01726904  0.12082754     0.35380
H105        H  0.01096481  0.02575031  0.17366094     0.40480
H106        H  0.77146216  0.11204889  0.34626521     0.40100
H107        H  0.81768624  0.17628030  0.36135883     0.34990
C108        C  0.17439321  0.29764970  0.09710845    -0.26740
C109        C  0.14882560  0.27217734  0.15341710    -0.14810
C110        C  0.08831999  0.29896462  0.16993414     0.35820
C111        C  0.04940989  0.32484928  0.12284849    -0.26190
C112        C  0.07201990  0.33067421  0.06131063    -0.15430
C113        C  0.13824459  0.33569832  0.05685830     0.36900
N114        N  0.16768488  0.37002024  0.00634239    -0.89680
H115        H  0.22291599  0.28741445  0.08354029     0.18010
H116        H  0.00338650  0.34389881  0.13583278     0.18010
N117        N  0.07265272  0.31792640  0.23182471    -0.88710
H118        H  0.21691641  0.36685022  0.00922163     0.35380
H119        H  0.15560437  0.41920522  0.01122433     0.40480
H120        H  0.11283565  0.31843533  0.25920824     0.40100
H121        H  0.03727171  0.28797756  0.24962461     0.34990
C122        C  0.20552487  0.10225014  0.05032942    -0.26740
C123        C  0.26994792  0.08539351  0.04669301    -0.14810
C124        C  0.31155758  0.12025837  0.08474185     0.35820
C125        C  0.28704430  0.16761355  0.12755047    -0.26190
C126        C  0.22086300  0.17829934  0.13555770    -0.15430
C127        C  0.18041761  0.14646683  0.09288099     0.36900
N128        N  0.11272864  0.15749494  0.09362713    -0.89680
H129        H  0.17200288  0.07793961  0.02220051     0.18010
H130        H  0.31938408  0.19266183  0.15729322     0.18010
N131        N  0.37828913  0.10759892  0.07989745    -0.88710
H132        H  0.09200132  0.13857863  0.05406547     0.35380
H133        H  0.09189394  0.13168900  0.12975829     0.40480
H134        H  0.38613156  0.05941062  0.09359585     0.40100
H135        H  0.40262068  0.13693147  0.11075042     0.34990
C136        C  0.10469170  0.17791835  0.27656659    -0.26740
C137        C  0.15007384  0.16517743  0.22860569    -0.14810
C138        C  0.16145757  0.09679358  0.21974526     0.35820
C139        C  0.11355837  0.05317383  0.23086268    -0.26190
C140        C  0.06827080  0.06400496  0.27694650    -0.15430
C141        C  0.06487448  0.12777647  0.30189362     0.36900
N142        N  0.02247870  0.14128160  0.35272370    -0.89680
H143        H  0.10395645  0.22432655  0.29891027     0.18010
H144        H  0.12035817  0.00501181  0.21330438     0.18010
N145        N  0.22297647  0.06743483  0.21107419    -0.88710
H146        H  0.02543899  0.19013339  0.36565159     0.35380
H147        H  0.03751562  0.11356591  0.39035732     0.40480
H148        H  0.26020682  0.09849984  0.21940462     0.40100
H149        H  0.22683154  0.04782342  0.16695594     0.34990
C150        C  0.08229532  0.77822337  0.15501020    -0.26740
C151        C  0.14522553  0.75854992  0.16360225    -0.14810
C152        C  0.16534827  0.70548804  0.12424148     0.35820
C153        C  0.12081829  0.67255161  0.08721760    -0.26190
C154        C  0.06206494  0.70195917  0.07241760    -0.15430
C155        C  0.04656410  0.75935080  0.10429134     0.36900
N156        N  0.00241061  0.80456755  0.07810930    -0.89680
H157        H  0.06513889  0.81702187  0.18115157     0.18010
H158        H  0.13751541  0.63202570  0.05921889     0.18010
N159        N  0.23049411  0.68838274  0.11365688    -0.88710
H160        H  0.02497875  0.84723698  0.06501045     0.35380
H161        H  0.96698576  0.81602534  0.10981254     0.40480
H162        H  0.25168040  0.66949228  0.15277749     0.40100
H163        H  0.25480035  0.72921074  0.09816727     0.34990
C164        C  0.22247861  0.94771841  0.09330330    -0.26740
C165        C  0.28433620  0.93972718  0.07156574    -0.14810
C166        C  0.31870970  0.88617408  0.09646155     0.35820
C167        C  0.28947717  0.84302716  0.13981271    -0.26190
C168        C  0.22489071  0.84945447  0.15852964    -0.15430
C169        C  0.19161821  0.90162266  0.12994042     0.36900
N170        N  0.12447391  0.90292481  0.12809517    -0.89680
H171        H  0.19266403  0.98381295  0.07251747     0.18010
H172        H  0.31737980  0.80247411  0.15644102     0.18010
N173        N  0.38340710  0.87407365  0.07892756    -0.88710
H174        H  0.11366687  0.89103586  0.08268979     0.35380
H175        H  0.10822549  0.95063892  0.13292352     0.40480
H176        H  0.40092861  0.91214866  0.05189876     0.40100
H177        H  0.38485191  0.83179058  0.05213829     0.34990
C178        C  0.17799552  0.90631527  0.27485104    -0.26740
C179        C  0.15236890  0.84580034  0.25645996    -0.14810
C180        C  0.09544354  0.82894510  0.29061395     0.35820
C181        C  0.05846271  0.87898488  0.31952652    -0.26190
C182        C  0.07794872  0.94428655  0.31772272    -0.15430
C183        C  0.14442162  0.94995851  0.31353309     0.36900
N184        N  0.17709250  0.00376595  0.34024418    -0.89680
H185        H  0.22303436  0.92264120  0.25749732     0.18010
H186        H  0.01327602  0.86669036  0.34010735     0.18010
N187        N  0.07194752  0.76387215  0.29598371    -0.88710
H188        H  0.21209670  0.98434525  0.36862111     0.35380
H189        H  0.14630261  0.02956199  0.36970400     0.40480
H190        H  0.10131398  0.73065372  0.27373035     0.40100
H191        H  0.02792884  0.76202806  0.27481059     0.34990
C192        C  0.87643545  0.70320114  0.16014939    -0.26740
C193        C  0.83351472  0.75492244  0.14644155    -0.14810
C194        C  0.82567587  0.76648312  0.08226495     0.35820
C195        C  0.87468969  0.75277028  0.04183439    -0.26190
C196        C  0.92066544  0.70482210  0.05435054    -0.15430
C197        C  0.91794568  0.67600121  0.11425353     0.36900
N198        N  0.95513653  0.61977862  0.13005307    -0.89680
H199        H  0.87909938  0.68472906  0.20667337     0.18010
H200        H  0.87186233  0.77597077  0.99718813     0.18010
N201        N  0.76579465  0.77670054  0.05362319    -0.88710
H202        H  0.98793498  0.63382290  0.16297381     0.35380
H203        H  0.98004773  0.60179970  0.09164255     0.40480
H204        H  0.72771447  0.76538852  0.08216889     0.40100
H205        H  0.76300531  0.82366206  0.03597210     0.34990
C206        C  0.69506541  0.85600598  0.15625406    -0.26740
C207        C  0.76183398  0.85452558  0.16371071    -0.14810
C208        C  0.79568841  0.90350332  0.13005280     0.35820
C209        C  0.76528378  0.94621201  0.09038434    -0.26190
C210        C  0.70428105  0.93448197  0.07101722    -0.15430
C211        C  0.66760548  0.88980141  0.10588087     0.36900
N212        N  0.60295398  0.87807342  0.09158281    -0.89680
H213        H  0.66421139  0.82676994  0.18454058     0.18010
H214        H  0.79306228  0.98368524  0.06811753     0.18010
N215        N  0.86269470  0.90747434  0.13093912    -0.88710
H216        H  0.60155007  0.85830570  0.04728376     0.35380
H217        H  0.57865164  0.92261339  0.09141087     0.40480
H218        H  0.88052579  0.90259717  0.08582430     0.40100
H219        H  0.87324894  0.95379945  0.14698984     0.34990
C220        C  0.91255957  0.83527631  0.22689201    -0.26740
C221        C  0.84717141  0.83823813  0.23922170    -0.14810
C222        C  0.82683179  0.88756697  0.28244012     0.35820
C223        C  0.87129761  0.93127048  0.30669177    -0.26190
C224        C  0.93305746  0.93589948  0.28165412    -0.15430
C225        C  0.95049595  0.88917318  0.23713217     0.36900
N226        N  0.99976296  0.90068995  0.19312997    -0.89680
H227        H  0.93284496  0.79745207  0.19922554     0.18010
H228        H  0.85494674  0.96644612  0.34056183     0.18010
N229        N  0.76219987  0.89566305  0.30284865    -0.88710
H230        H  0.03438749  0.93130903  0.20861296     0.35380
H231        H  0.98104323  0.91833122  0.15223974     0.40480
H232        H  0.73247996  0.86091895  0.28458200     0.40100
H233        H  0.74626400  0.94087110  0.28680524     0.34990
C234        C  0.14253079  0.13520920  0.69692578    -0.26740
C235        C  0.13133851  0.16562215  0.75501534    -0.14810
C236        C  0.06678670  0.16313161  0.77309103     0.35820
C237        C  0.03916907  0.10180600  0.76784364    -0.26190
C238        C  0.05400522  0.06196051  0.71662644    -0.15430
C239        C  0.10102409  0.08621764  0.67550543     0.36900
N240        N  0.10694539  0.06093942  0.61386132    -0.89680
H241        H  0.18039008  0.15068780  0.66705596     0.18010
H242        H  0.00247984  0.08938263  0.80060606     0.18010
N243        N  0.02583538  0.21427442  0.75160097    -0.88710
H244        H  0.14352318  0.08429630  0.58988321     0.35380
H245        H  0.06511330  0.07243180  0.59100336     0.40480
H246        H  0.04866252  0.24313989  0.71843021     0.40100
H247        H  0.01180339  0.24367616  0.78831280     0.34990
C248        C  0.28495291  0.13746773  0.84743375    -0.26740
C249        C  0.21837686  0.13733768  0.83578566    -0.14810
C250        C  0.18287969  0.09160107  0.87064140     0.35820
C251        C  0.21150238  0.05210619  0.91428754    -0.26190
C252        C  0.27404292  0.05978168  0.93242530    -0.15430
C253        C  0.31242339  0.10095481  0.89595036     0.36900
N254        N  0.37778750  0.11118598  0.90971557    -0.89680
H255        H  0.31546509  0.17235771  0.82507493     0.18010
H256        H  0.17982241  0.02264487  0.94108731     0.18010
N257        N  0.11564324  0.09069539  0.87003169    -0.88710
H258        H  0.40451507  0.09600533  0.87126438     0.35380
H259        H  0.39205864  0.08194693  0.94652748     0.40480
H260        H  0.09871977  0.10090812  0.91463942     0.40100
H261        H  0.10170209  0.04347201  0.85930375     0.34990
C262        C  0.10727761  0.29030690  0.83704752    -0.26740
C263        C  0.15168430  0.23981311  0.85025441    -0.14810
C264        C  0.16494196  0.23278538  0.91372052     0.35820
C265        C  0.11881524  0.24843036  0.95691233    -0.26190
C266        C  0.07331188  0.29700647  0.94592444    -0.15430
C267        C  0.07037767  0.32140970  0.88443864     0.36900
N268        N  0.03029059  0.37537114  0.86818192    -0.89680
H269        H  0.10207511  0.30650876  0.78985910     0.18010
H270        H  0.12497046  0.22945988  0.00244928     0.18010
N271        N  0.22822712  0.23206615  0.93624058    -0.88710
H272        H  0.05935515  0.41177205  0.85004385     0.35380
H273        H  0.00856798  0.39538191  0.90748021     0.40480
H274        H  0.26085428  0.24501242  0.90183366     0.40100
H275        H  0.23826377  0.18695159  0.95578958     0.34990
C276        C  0.12284339  0.70396880  0.84803436    -0.26740
C277        C  0.16801615  0.75206684  0.86354900    -0.14810
C278        C  0.18016611  0.75474994  0.92835826     0.35820
C279        C  0.13104266  0.74383052  0.96891596    -0.26190
C280        C  0.08218762  0.70027755  0.95609532    -0.15430
C281        C  0.08306480  0.67438657  0.89449953     0.36900
N282        N  0.04592746  0.61932735  0.87766439    -0.89680
H283        H  0.11720957  0.69074934  0.80007126     0.18010
H284        H  0.13521165  0.76826389  0.01266074     0.18010
N285        N  0.23966793  0.76951772  0.95651282    -0.88710
H286        H  0.01259569  0.63451685  0.84543301     0.35380
H287        H  0.02201687  0.60040863  0.91610785     0.40480
H288        H  0.27706732  0.76978268  0.92538493     0.40100
H289        H  0.25070831  0.73107444  0.98624581     0.34990
C290        C  0.08715769  0.83865379  0.78169192    -0.26740
C291        C  0.15339843  0.84291827  0.77410200    -0.14810
C292        C  0.17440763  0.89589563  0.73497514     0.35820
C293        C  0.13007804  0.93709011  0.70611794    -0.26190
C294        C  0.06582144  0.93857683  0.72387578    -0.15430
C295        C  0.04812605  0.89262250  0.76812168     0.36900
N296        N  0.99625676  0.90758137  0.80776803    -0.89680
H297        H  0.06651045  0.80145656  0.80959943     0.18010
H298        H  0.14866026  0.97167318  0.67368824     0.18010
N299        N  0.23979383  0.91075062  0.72272008    -0.88710
H300        H  0.01145815  0.91010592  0.85328107     0.35380
H301        H  0.96529282  0.87012091  0.80416702     0.40480
H302        H  0.27109441  0.87754909  0.74174543     0.40100
H303        H  0.24893495  0.95588843  0.74280890     0.34990
C304        C  0.29988061  0.86430045  0.85855150    -0.26740
C305        C  0.23342663  0.85430475  0.85460155    -0.14810
C306        C  0.19567794  0.89006610  0.89838727     0.35820
C307        C  0.22121712  0.91145350  0.95190536    -0.26190
C308        C  0.28485039  0.92446380  0.95636576    -0.15430
C309        C  0.32530850  0.90259671  0.90728696     0.36900
N310        N  0.39146272  0.91602656  0.90687005    -0.89680
H311        H  0.33191685  0.84097357  0.82583079     0.18010
H312        H  0.18778448  0.92768357  0.98659630     0.18010
N313        N  0.13001258  0.90371827  0.89353343    -0.88710
H314        H  0.41095929  0.89577718  0.94656416     0.35380
H315        H  0.39701297  0.96643759  0.90864707     0.40480
H316        H  0.10519193  0.86086202  0.89358080     0.40100
H317        H  0.12290876  0.93305050  0.85500940     0.34990
C318        C  0.69631846  0.14941156  0.86836354    -0.26740
C319        C  0.76258603  0.16110931  0.86962167    -0.14810
C320        C  0.79665055  0.12380549  0.91494652     0.35820
C321        C  0.76884473  0.07272138  0.94627171    -0.26190
C322        C  0.70449918  0.06110666  0.94478999    -0.15430
C323        C  0.66718094  0.10035722  0.90524989     0.36900
N324        N  0.59970476  0.09397558  0.90385705    -0.89680
H325        H  0.66572756  0.17882236  0.84019292     0.18010
H326        H  0.79731865  0.04852990  0.98058184     0.18010
N327        N  0.86139679  0.13394133  0.92868031    -0.88710
H328        H  0.57978188  0.13675593  0.92199621     0.35380
H329        H  0.58483293  0.05576381  0.93228323     0.40480
H330        H  0.88724055  0.09118760  0.92022634     0.40100
H331        H  0.86483113  0.14513493  0.97563355     0.34990
C332        C  0.83234561  0.08282848  0.79093372    -0.26740
C333        C  0.83478302  0.14811361  0.77362042    -0.14810
C334        C  0.87482931  0.16156395  0.72086388     0.35820
C335        C  0.91298416  0.11041446  0.69485045    -0.26190
C336        C  0.91947339  0.05113554  0.72706476    -0.15430
C337        C  0.88502377  0.04458434  0.78241493     0.36900
N338        N  0.89962470  0.99537293  0.82667667    -0.89680
H339        H  0.79494779  0.06270539  0.81872848     0.18010
H340        H  0.93965547  0.11786468  0.65239020     0.18010
N341        N  0.87627052  0.22495535  0.69334952    -0.88710
H342        H  0.86561782  0.99524712  0.86221336     0.35380
H343        H  0.94148174  0.00930125  0.84764075     0.40480
H344        H  0.83415807  0.23109224  0.66936795     0.40100
H345        H  0.91252870  0.22740859  0.66008465     0.34990
C346        C  0.91248741  0.22277365  0.85476994    -0.26740
C347        C  0.84822277  0.24193022  0.85297704    -0.14810
C348        C  0.82864866  0.29147021  0.89583932     0.35820
C349        C  0.87353561  0.32013863  0.93392907    -0.26190
C350        C  0.93261301  0.29064545  0.94418811    -0.15430
C351        C  0.94902960  0.23684204  0.90624334     0.36900
N352        N  0.99185024  0.18634024  0.92517380    -0.89680
H353        H  0.92930101  0.18226403  0.82748498     0.18010
H354        H  0.85884921  0.36172679  0.96053179     0.18010
N355        N  0.76404813  0.31280445  0.90431865    -0.88710
H356        H  0.00641928  0.19174867  0.97057196     0.35380
H357        H  0.03032110  0.18578094  0.89466211     0.40480
H358        H  0.73226095  0.28662814  0.87830539     0.40100
H359        H  0.76079975  0.36150372  0.89060309     0.34990
C360        C  0.70073804  0.83476717  0.87610475    -0.26740
C361        C  0.76736512  0.83194865  0.86355370    -0.14810
C362        C  0.80374531  0.87230569  0.90296056     0.35820
C363        C  0.77539764  0.91511923  0.94594961    -0.26190
C364        C  0.71004124  0.92123797  0.95528727    -0.15430
C365        C  0.67203948  0.87988792  0.91891507     0.36900
N366        N  0.60427054  0.88179749  0.92407444    -0.89680
H367        H  0.66948772  0.80145861  0.85371512     0.18010
H368        H  0.80640727  0.94273382  0.97438153     0.18010
N369        N  0.87102532  0.86834929  0.90173902    -0.88710
H370        H  0.58691028  0.89462043  0.88073825     0.35380
H371        H  0.58918527  0.91869765  0.95412818     0.40480
H372        H  0.88484140  0.88458379  0.85869566     0.40100
H373        H  0.89161985  0.89925693  0.93386871     0.34990
C374        C  0.91527095  0.75237734  0.84466195    -0.26740
C375        C  0.84947714  0.74381169  0.84812496    -0.14810
C376        C  0.82940346  0.69753769  0.89353626     0.35820
C377        C  0.87507392  0.66683794  0.93205617    -0.26190
C378        C  0.93588322  0.69446610  0.93904519    -0.15430
C379        C  0.95176762  0.74387309  0.89671257     0.36900
N380        N  0.98705728  0.79955202  0.91460116    -0.89680
H381        H  0.93765049  0.77768567  0.80863197     0.18010
H382        H  0.85953215  0.63048674  0.96508379     0.18010
N383        N  0.76396472  0.68012013  0.89922631    -0.88710
H384        H  0.03399756  0.79205028  0.90417662     0.35380
H385        H  0.98075524  0.80987449  0.96138966     0.40480
H386        H  0.74013412  0.71870173  0.92084087     0.40100
H387        H  0.75877303  0.64040123  0.92902045     0.34990
C388        C  0.88628006  0.81707726  0.72018412    -0.26740
C389        C  0.83525253  0.83597280  0.76091209    -0.14810
C390        C  0.81055305  0.89879539  0.74646616     0.35820
C391        C  0.84573161  0.94139591  0.70877877    -0.26190
C392        C  0.91150877  0.93143524  0.69879430    -0.15430
C393        C  0.92649855  0.86443359  0.69075989     0.36900
N394        N  0.97173766  0.84425727  0.64416722    -0.89680
H395        H  0.89779913  0.76633628  0.71406898     0.18010
H396        H  0.82362096  0.98732234  0.69670549     0.18010
N397        N  0.75011380  0.92079360  0.76901802    -0.88710
H398        H  0.97019550  0.79381736  0.63826947     0.35380
H399        H  0.01731626  0.85420365  0.65795962     0.40480
H400        H  0.72262542  0.93426527  0.73127256     0.40100
H401        H  0.75652179  0.96198632  0.79622339     0.34990
C402        C  0.73269208  0.64908987  0.70662407    -0.26740
C403        C  0.67816929  0.67866512  0.68368070    -0.14810
C404        C  0.66344403  0.74262583  0.70240586     0.35820
C405        C  0.70313778  0.77442137  0.74408028    -0.26190
C406        C  0.75750782  0.74487736  0.77006501    -0.15430
C407        C  0.77293333  0.68052524  0.74727305     0.36900
N408        N  0.83012345  0.64513321  0.75961271    -0.89680
H409        H  0.74588443  0.60053363  0.69132984     0.18010
H410        H  0.69096444  0.82378391  0.75516138     0.18010
N411        N  0.60919790  0.77618376  0.67820752    -0.88710
H412        H  0.82901837  0.62396092  0.80325821     0.35380
H413        H  0.87028207  0.67261274  0.75089783     0.40480
H414        H  0.61845321  0.78532155  0.63144549     0.40100
H415        H  0.60308941  0.82169795  0.69911126     0.34990
C416        C  0.72751335  0.34160210  0.71736728    -0.26740
C417        C  0.67916194  0.30939424  0.68724703    -0.14670
C418        C  0.67162292  0.24202910  0.69728536     0.35820
C419        C  0.71240461  0.20914715  0.73771038    -0.26190
C420        C  0.75886936  0.24164909  0.77188431    -0.15430
C421        C  0.76890955  0.30912278  0.75712889     0.36900
N422        N  0.82268692  0.34467688  0.77834711    -0.89680
H423        H  0.73491948  0.39276404  0.70782859     0.18010
H424        H  0.70769468  0.15696819  0.74284422     0.18010
N425        N  0.62396486  0.20649230  0.66532712    -0.88710
H426        H  0.82010350  0.39386787  0.76613296     0.35380
H427        H  0.86326916  0.32604112  0.75655233     0.40480
H428        H  0.58006647  0.22157581  0.68328986     0.40100
H429        H  0.62761616  0.15670664  0.67485349     0.34990
C430        C  0.32385822  0.67053239  0.74931276    -0.26740
C431        C  0.32248166  0.68259257  0.68605066    -0.14810
C432        C  0.28032695  0.72987562  0.66353166     0.35820
C433        C  0.24013052  0.76289136  0.70491625    -0.26190
C434        C  0.24462771  0.75733278  0.77036881    -0.15430
C435        C  0.28581482  0.70638071  0.79132329     0.36900
N436        N  0.28596529  0.68559163  0.85413845    -0.89680
H437        H  0.35404748  0.63178865  0.76647994     0.18010
H438        H  0.20510060  0.79297486  0.68317056     0.18010
N439        N  0.27523362  0.74485193  0.59877316    -0.88710
H440        H  0.33244274  0.68718290  0.86980720     0.35380
H441        H  0.27121746  0.63717895  0.85597042     0.40480
H442        H  0.30618233  0.71708921  0.57138422     0.40100
H443        H  0.28843113  0.79339230  0.59271834     0.34990
C444        C  0.73819930  0.69066533  0.33657830    -0.26740
C445        C  0.68113525  0.66874025  0.31378548    -0.14810
C446        C  0.66650336  0.68110511  0.25166580     0.35820
C447        C  0.70791819  0.71893355  0.21553268    -0.26190
C448        C  0.76114438  0.75033537  0.24030311    -0.15430
C449        C  0.77870438  0.72966719  0.30153640     0.36900
N450        N  0.83861211  0.74141470  0.32936895    -0.89680
H451        H  0.75167457  0.67747424  0.38313251     0.18010
H452        H  0.69667206  0.72460000  0.16764199     0.18010
N453        N  0.61083061  0.65581338  0.22335249    -0.88710
H454        H  0.84053360  0.78781412  0.34841951     0.35380
H455        H  0.87625304  0.73078322  0.29934534     0.40480
H456        H  0.58402294  0.62813803  0.25434104     0.40100
H457        H  0.62566644  0.62422882  0.18807347     0.34990
C458        C  0.32011884  0.24212022  0.68167942    -0.26740
C459        C  0.31988269  0.30971000  0.68699492    -0.14810
C460        C  0.28014922  0.33971784  0.73087670     0.35820
C461        C  0.23928174  0.30158404  0.76684667    -0.26190
C462        C  0.23392986  0.23315259  0.75902222    -0.15430
C463        C  0.27847453  0.20318992  0.71606111     0.36900
N464        N  0.28772651  0.13387316  0.70850489    -0.89680
H465        H  0.35244276  0.21881660  0.64903977     0.18010
H466        H  0.21289293  0.32750689  0.80177997     0.18010
N467        N  0.28198285  0.40912279  0.73947069    -0.88710
H468        H  0.28362178  0.12237542  0.66171169     0.35380
H469        H  0.25466208  0.10584247  0.73197509     0.40480
H470        H  0.32664567  0.42052741  0.75614820     0.40100
H471        H  0.24906481  0.42426877  0.77311687     0.34990
C472        C  0.21957732  0.69298425  0.25982463    -0.26740
C473        C  0.23549499  0.75839674  0.24588983    -0.14810
C474        C  0.28969155  0.78302447  0.27656103     0.35820
C475        C  0.32677053  0.74235099  0.31393952    -0.26190
C476        C  0.31131703  0.67732625  0.32499950    -0.15430
C477        C  0.25647974  0.65269385  0.29733346     0.36900
N478        N  0.23665390  0.58673739  0.30555756    -0.89680
H479        H  0.17851068  0.67067659  0.24035369     0.18010
H480        H  0.36777417  0.76295406  0.33570852     0.18010
N481        N  0.30851870  0.84939178  0.27087321    -0.88710
H482        H  0.22533093  0.57904233  0.35209859     0.35380
H483        H  0.27358099  0.55551390  0.29184859     0.40480
H484        H  0.35504423  0.85042132  0.25385919     0.40100
H485        H  0.30833688  0.86990343  0.31506142     0.34990
C486        C  0.75041414  0.31687609  0.31896216    -0.26740
C487        C  0.68425897  0.31315458  0.31782349    -0.14810
C488        C  0.65593475  0.27662511  0.27117780     0.35820
C489        C  0.69372936  0.24257780  0.22883446    -0.26190
C490        C  0.76077985  0.24081769  0.23218432    -0.15430
C491        C  0.78869482  0.28161152  0.27696072     0.36900
N492        N  0.85591968  0.28703478  0.28074398    -0.89680
H493        H  0.77289064  0.34625085  0.35370039     0.18010
H494        H  0.66835621  0.21726886  0.19358020     0.18010
N495        N  0.58871345  0.27442967  0.26414742    -0.88710
H496        H  0.86957040  0.27388198  0.32526943     0.35380
H497        H  0.86770737  0.33583464  0.27393423     0.40480
H498        H  0.57115331  0.32203729  0.26084691     0.40100
H499        H  0.56856544  0.25171758  0.30275652     0.34990
C500        C  0.29491510  0.34636764  0.27892066    -0.26740
C501        C  0.31816989  0.30872517  0.32672150    -0.14810
C502        C  0.30207455  0.24240281  0.32954679     0.35820
C503        C  0.26278048  0.21639064  0.28419065    -0.26190
C504        C  0.23781502  0.25351237  0.23438537    -0.15430
C505        C  0.25635478  0.32127612  0.23337554     0.36900
N506        N  0.24003163  0.36863170  0.18791853    -0.89680
H507        H  0.30729843  0.39749264  0.27658400     0.18010
H508        H  0.24908279  0.16678425  0.29172425     0.18010
N509        N  0.32038283  0.20060319  0.37965043    -0.88710
H510        H  0.19175511  0.37916142  0.18742145     0.35380
H511        H  0.26218980  0.35852333  0.14570662     0.40480
H512        H  0.34439629  0.22544234  0.41383347     0.40100
H513        H  0.35126428  0.16512385  0.36167683     0.34990
loop_ 
_geom_bond_atom_site_label_1 
_geom_bond_atom_site_label_2 
_geom_bond_distance 
_geom_bond_site_symmetry_2 
_ccdc_geom_bond_type 
N1            N2   1.322       .  A
N1            N7   1.315       .  A
N1          Mn30   2.211       .  S
N2            C9   1.357       .  A
N3            N5   1.316       .  A
N3            N4   1.321       .  A
N3          Mn19   2.208       .  S
N4           C10   1.353       .  A
N5            N6   1.321       .  A
N5          Mn30   2.199       .  S
N6           C10   1.352       .  A
N7            N8   1.320       .  A
N7          Mn19   2.199       .  S
N8            C9   1.352       .  A
C9          C476   1.492       .  S
C10         C431   1.471       .  S
N11          N17   1.315       .  A
N11          N12   1.319       .  A
N11         Mn41   2.196       .  S
N12          C20   1.352       .  A
N13          N14   1.318       .  A
N13          N15   1.317       .  A
N13         Mn19   2.206       .  S
N14          C21   1.352       .  A
N15          N16   1.323       .  A
N15         Mn41   2.198       .  S
N16          C21   1.353       .  A
N17          N18   1.318       .  A
N17         Mn19   2.191       .  S
N18          C20   1.351       .  A
Mn19        Cl43   2.532       .  S
C20         C459   1.472       .  S
C21         C501   1.477       .  S
N22          N23   1.323       .  A
N22          N28   1.314       .  A
N22         Mn30   2.210       .  S
N23          C31   1.356       .  A
N24          N26   1.316       .  A
N24          N25   1.318       .  A
N24         Mn42   2.199       .  S
N25          C32   1.351       .  A
N26          N27   1.323       .  A
N26         Mn30   2.210       .  S
N27          C32   1.355       .  A
N28          N29   1.318       .  A
N28         Mn42   2.192       .  S
N29          C31   1.353       .  A
Mn30        Cl43   2.556       .  S
C31         C403   1.490       .  S
C32         C445   1.472       .  S
N33          N34   1.320       .  A
N33          N39   1.315       .  A
N33         Mn41   2.208       .  S
N34          C44   1.355       .  A
N35          N36   1.319       .  A
N35          N37   1.315       .  A
N35         Mn42   2.205       .  S
N36          C45   1.356       .  A
N37          N38   1.319       .  A
N37         Mn41   2.191       .  S
N38          C45   1.351       .  A
N39          N40   1.318       .  A
N39         Mn42   2.182       .  S
N40          C44   1.349       .  A
Mn41        Cl43   2.556       .  S
Mn42        Cl43   2.536       .  S
C44         C487   1.476       .  S
C45         C417   1.484       .  S
C46         C361   1.623       .  S
C46         C375   1.587       .  S
C46         C389   1.609       .  S
C46         C406   1.576       .  S
C47         C319   1.604       .  S
C47         C333   1.578       .  S
C47         C347   1.562       .  S
C47         C420   1.567       .  S
C48         C277   1.603       .  S
C48         C291   1.594       .  S
C48         C305   1.580       .  S
C48         C434   1.589       .  S
C49         C235   1.598       .  S
C49         C249   1.590       .  S
C49         C263   1.597       .  S
C49         C462   1.573       .  S
C50          C51   1.411   1_655  D
C50         C336   1.510   1_565  S
C50         C392   1.578       .  S
C51         C238   1.531   1_565  S
C51         C294   1.526       .  S
C52         C193   1.591       .  S
C52         C207   1.594       .  S
C52         C221   1.576       .  S
C52         C448   1.574       .  S
C53         C151   1.606       .  S
C53         C168   1.598       .  S
C53         C179   1.609       .  S
C53         C473   1.576       .  S
C54          C55   1.407   1_655  D
C54         C196   1.534       .  S
C54         C378   1.523   1_554  S
C55         C154   1.530       .  S
C55         C280   1.545   1_554  S
C56         C109   1.593       .  S
C56         C126   1.584       .  S
C56         C137   1.617       .  S
C56         C504   1.590       .  S
C57          C58   1.399   1_665  D
C57          C98   1.495   1_565  S
C57         C224   1.514       .  S
C58         C140   1.535       .  S
C58         C182   1.566   1_545  S
C59          C60   1.401   1_546  D
C59         C123   1.527   1_556  S
C59         C252   1.521       .  S
C60         C165   1.532       .  S
C60         C308   1.511   1_554  S
C61          C62   1.396   1_655  D
C61          C81   1.499       .  S
C61         C350   1.514   1_554  S
C62         C112   1.555       .  S
C62         C266   1.531   1_554  S
C63          C67   1.584       .  S
C63          C84   1.593       .  S
C63          C95   1.562       .  S
C63         C490   1.562       .  S
C64          C65   1.402   1_565  D
C64         C210   1.502       .  S
C64         C364   1.547   1_554  S
C65          C70   1.564       .  S
C65         C322   1.504   1_554  S
C66          C67   1.427       .  A
C66          C71   1.415       .  A
C66          H73   1.083       .  S
C67          C68   1.417       .  A
C68          C69   1.399       .  A
C68          N75   1.424       .  S
C69          C70   1.417       .  A
C69          H74   1.077   1_554  S
C70          C71   1.414       .  A
C71          N72   1.429       .  S
N72          H76   1.045       .  S
N72          H77   1.046   1_545  S
N75          H78   1.046       .  S
N75          H79   1.046       .  S
C80          C81   1.394       .  A
C80          C85   1.385       .  A
C80          H87   1.082       .  S
C81          C82   1.422       .  A
C82          C83   1.421       .  A
C82          N89   1.430       .  S
C83          C84   1.415       .  A
C83          H88   1.083       .  S
C84          C85   1.427       .  A
C85          N86   1.438       .  S
N86          H90   1.042       .  S
N86          H91   1.039       .  S
N89          H92   1.045       .  S
N89          H93   1.046       .  S
C94          C95   1.410       .  A
C94          C99   1.386       .  A
C94         H101   1.085       .  S
C95          C96   1.421       .  A
C96          C97   1.410       .  A
C96         N103   1.430       .  S
C97          C98   1.407       .  A
C97         H102   1.084       .  S
C98          C99   1.417       .  A
C99         N100   1.436       .  S
N100        H104   1.042       .  S
N100        H105   1.032   1_655  S
N103        H106   1.046       .  S
N103        H107   1.045       .  S
C108        C109   1.427       .  A
C108        C113   1.401       .  A
C108        H115   1.082       .  S
C109        C110   1.429       .  A
C110        C111   1.420       .  A
C110        N117   1.429       .  S
C111        C112   1.414       .  A
C111        H116   1.079       .  S
C112        C113   1.407       .  A
C113        N114   1.438       .  S
N114        H118   1.046       .  S
N114        H119   1.045       .  S
N117        H120   1.044       .  S
N117        H121   1.043       .  S
C122        C123   1.404       .  A
C122        C127   1.391       .  A
C122        H129   1.070       .  S
C123        C124   1.416       .  A
C124        C125   1.433       .  A
C124        N131   1.435       .  S
C125        C126   1.423       .  A
C125        H130   1.081       .  S
C126        C127   1.432       .  A
C127        N128   1.447       .  S
N128        H132   1.046       .  S
N128        H133   1.039       .  S
N131        H134   1.046       .  S
N131        H135   1.045       .  S
C136        C137   1.426       .  A
C136        C141   1.440       .  A
C136        H143   1.070       .  S
C137        C138   1.436       .  A
C138        C139   1.378       .  A
C138        N145   1.439       .  S
C139        C140   1.389       .  A
C139        H144   1.068       .  S
C140        C141   1.419       .  A
C141        N142   1.435       .  S
N142        H146   1.045       .  S
N142        H147   1.045       .  S
N145        H148   1.037       .  S
N145        H149   1.039       .  S
C150        C151   1.402       .  A
C150        C155   1.400       .  A
C150        H157   1.038       .  S
C151        C152   1.442       .  A
C152        C153   1.423       .  A
C152        N159   1.434       .  S
C153        C154   1.417       .  A
C153        H158   1.084       .  S
C154        C155   1.401       .  A
C155        N156   1.433       .  S
N156        H160   1.040       .  S
N156        H161   1.034   1_455  S
N159        H162   1.038       .  S
N159        H163   1.041       .  S
C164        C165   1.392       .  A
C164        C169   1.395       .  A
C164        H171   1.072       .  S
C165        C166   1.423       .  A
C166        C167   1.428       .  A
C166        N173   1.434       .  S
C167        C168   1.424       .  A
C167        H172   1.081       .  S
C168        C169   1.423       .  A
C169        N170   1.421       .  S
N170        H174   1.043       .  S
N170        H175   1.041       .  S
N173        H176   1.044       .  S
N173        H177   1.045       .  S
C178        C179   1.421       .  A
C178        C183   1.408       .  A
C178        H185   1.075       .  S
C179        C180   1.448       .  A
C180        C181   1.425       .  A
C180        N187   1.435       .  S
C181        C182   1.408       .  A
C181        H186   1.080       .  S
C182        C183   1.414       .  A
C183        N184   1.437   1_565  S
N184        H188   1.045   1_545  S
N184        H189   1.046       .  S
N187        H190   1.033       .  S
N187        H191   1.045       .  S
C192        C193   1.425       .  A
C192        C197   1.427       .  A
C192        H199   1.078       .  S
C193        C194   1.422       .  A
C194        C195   1.374       .  A
C194        N201   1.432       .  S
C195        C196   1.406       .  A
C195        H200   1.080   1_554  S
C196        C197   1.426       .  A
C197        N198   1.435       .  S
N198        H202   1.045       .  S
N198        H203   1.044       .  S
N201        H204   1.036       .  S
N201        H205   1.039       .  S
C206        C207   1.424       .  A
C206        C211   1.421       .  A
C206        H213   1.075       .  S
C207        C208   1.433       .  A
C208        C209   1.388       .  A
C208        N215   1.421       .  S
C209        C210   1.387       .  A
C209        H214   1.082       .  S
C210        C211   1.417       .  A
C211        N212   1.430       .  S
N212        H216   1.043       .  S
N212        H217   1.045       .  S
N215        H218   1.046       .  S
N215        H219   1.041       .  S
C220        C221   1.405       .  A
C220        C225   1.394       .  A
C220        H227   1.065       .  S
C221        C222   1.439       .  A
C222        C223   1.415       .  A
C222        N229   1.438       .  S
C223        C224   1.411       .  A
C223        H228   1.081       .  S
C224        C225   1.404       .  A
C225        N226   1.423       .  S
N226        H230   1.031   1_655  S
N226        H231   1.039       .  S
N229        H232   1.039       .  S
N229        H233   1.046       .  S
C234        C235   1.421       .  A
C234        C239   1.425       .  A
C234        H241   1.072       .  S
C235        C236   1.416       .  A
C236        C237   1.400       .  A
C236        N243   1.437       .  S
C237        C238   1.409       .  A
C237        H242   1.076       .  S
C238        C239   1.418       .  A
C239        N240   1.436       .  S
N240        H244   1.045       .  S
N240        H245   1.045       .  S
N243        H246   1.046       .  S
N243        H247   1.037       .  S
C248        C249   1.435       .  A
C248        C253   1.419       .  A
C248        H255   1.079       .  S
C249        C250   1.418       .  A
C250        C251   1.387       .  A
C250        N257   1.423       .  S
C251        C252   1.396       .  A
C251        H256   1.071       .  S
C252        C253   1.411       .  A
C253        N254   1.437       .  S
N254        H258   1.045       .  S
N254        H259   1.044       .  S
N257        H260   1.046       .  S
N257        H261   1.045       .  S
C262        C263   1.424       .  A
C262        C267   1.428       .  A
C262        H269   1.081       .  S
C263        C264   1.414       .  A
C264        C265   1.377       .  A
C264        N271   1.432       .  S
C265        C266   1.402       .  A
C265        H270   1.069   1_556  S
C266        C267   1.424       .  A
C267        N268   1.436       .  S
N268        H272   1.045       .  S
N268        H273   1.044       .  S
N271        H274   1.044       .  S
N271        H275   1.040       .  S
C276        C277   1.426       .  A
C276        C281   1.440       .  A
C276        H283   1.083       .  S
C277        C278   1.432       .  A
C278        C279   1.370       .  A
C278        N285   1.442       .  S
C279        C280   1.405       .  A
C279        H284   1.078   1_556  S
C280        C281   1.437       .  A
C281        N282   1.435       .  S
N282        H286   1.045       .  S
N282        H287   1.044       .  S
N285        H288   1.031       .  S
N285        H289   1.045       .  S
C290        C291   1.412       .  A
C290        C295   1.409       .  A
C290        H297   1.067       .  S
C291        C292   1.448       .  A
C292        C293   1.410       .  A
C292        N299   1.440       .  S
C293        C294   1.407       .  A
C293        H298   1.072       .  S
C294        C295   1.394       .  A
C295        N296   1.414   1_455  S
N296        H300   1.043   1_655  S
N296        H301   1.020       .  S
N299        H302   1.035       .  S
N299        H303   1.046       .  S
C304        C305   1.427       .  A
C304        C309   1.432       .  A
C304        H311   1.082       .  S
C305        C306   1.429       .  A
C306        C307   1.362       .  A
C306        N313   1.420       .  S
C307        C308   1.380       .  A
C307        H312   1.075       .  S
C308        C309   1.425       .  A
C309        N310   1.429       .  S
N310        H314   1.043       .  S
N310        H315   1.045       .  S
N313        H316   1.030       .  S
N313        H317   1.040       .  S
C318        C319   1.425       .  A
C318        C323   1.424       .  A
C318        H325   1.077       .  S
C319        C320   1.442       .  A
C320        C321   1.381       .  A
C320        N327   1.423       .  S
C321        C322   1.385       .  A
C321        H326   1.081       .  S
C322        C323   1.419       .  A
C323        N324   1.435       .  S
N324        H328   1.045       .  S
N324        H329   1.045       .  S
N327        H330   1.045       .  S
N327        H331   1.047       .  S
C332        C333   1.394       .  A
C332        C337   1.367       .  A
C332        H339   1.072       .  S
C333        C334   1.440       .  A
C334        C335   1.430       .  A
C334        N341   1.432       .  S
C335        C336   1.409       .  A
C335        H340   1.083       .  S
C336        C337   1.400       .  A
C337        N338   1.427   1_545  S
N338        H342   1.045       .  S
N338        H343   1.044   1_565  S
N341        H344   1.045       .  S
N341        H345   1.046       .  S
C346        C347   1.412       .  A
C346        C351   1.399       .  A
C346        H353   1.076       .  S
C347        C348   1.432       .  A
C348        C349   1.402       .  A
C348        N355   1.440       .  S
C349        C350   1.404       .  A
C349        H354   1.072       .  S
C350        C351   1.416       .  A
C351        N352   1.434       .  S
N352        H356   1.041   1_655  S
N352        H357   1.040   1_655  S
N355        H358   1.039       .  S
N355        H359   1.045       .  S
C360        C361   1.432       .  A
C360        C365   1.436       .  A
C360        H367   1.077       .  S
C361        C362   1.430       .  A
C362        C363   1.405       .  A
C362        N369   1.425       .  S
C363        C364   1.398       .  A
C363        H368   1.074       .  S
C364        C365   1.423       .  A
C365        N366   1.436       .  S
N366        H370   1.046       .  S
N366        H371   1.044       .  S
N369        H372   1.029       .  S
N369        H373   1.046       .  S
C374        C375   1.405       .  A
C374        C379   1.386       .  A
C374        H381   1.047       .  S
C375        C376   1.430       .  A
C376        C377   1.428       .  A
C376        N383   1.437       .  S
C377        C378   1.422       .  A
C377        H382   1.083       .  S
C378        C379   1.407       .  A
C379        N380   1.430       .  S
N380        H384   1.025   1_655  S
N380        H385   1.042       .  S
N383        H386   1.043       .  S
N383        H387   1.045       .  S
C388        C389   1.434       .  A
C388        C393   1.440       .  A
C388        H395   1.076       .  S
C389        C390   1.424       .  A
C390        C391   1.407       .  A
C390        N397   1.431       .  S
C391        C392   1.418       .  A
C391        H396   1.083       .  S
C392        C393   1.420       .  A
C393        N394   1.438       .  S
N394        H398   1.045       .  S
N394        H399   1.036   1_655  S
N397        H400   1.046       .  S
N397        H401   1.043       .  S
C402        C403   1.396       .  A
C402        C407   1.397       .  A
C402        H409   1.084       .  S
C403        C404   1.406       .  A
C404        C405   1.408       .  A
C404        N411   1.438       .  S
C405        C406   1.419       .  A
C405        H410   1.071       .  S
C406        C407   1.445       .  A
C407        N408   1.434       .  S
N408        H412   1.040       .  S
N408        H413   1.039       .  S
N411        H414   1.046       .  S
N411        H415   1.046       .  S
C416        C417   1.395       .  A
C416        C421   1.401       .  A
C416        H423   1.084       .  S
C417        C418   1.411       .  A
C418        C419   1.406       .  A
C418        N425   1.438       .  S
C419        C420   1.413       .  A
C419        H424   1.083       .  S
C420        C421   1.439       .  A
C421        N422   1.440       .  S
N422        H426   1.046       .  S
N422        H427   1.043       .  S
N425        H428   1.045       .  S
N425        H429   1.046       .  S
C430        C431   1.393       .  A
C430        C435   1.409       .  A
C430        H437   1.084       .  S
C431        C432   1.404       .  A
C432        C433   1.397       .  A
C432        N439   1.441       .  S
C433        C434   1.427       .  A
C433        H438   1.074       .  S
C434        C435   1.433       .  A
C435        N436   1.425       .  S
N436        H440   1.046       .  S
N436        H441   1.046       .  S
N439        H442   1.043       .  S
N439        H443   1.046       .  S
C444        C445   1.391       .  A
C444        C449   1.394       .  A
C444        H451   1.085       .  S
C445        C446   1.407       .  A
C446        C447   1.405       .  A
C446        N453   1.438       .  S
C447        C448   1.416       .  A
C447        H452   1.074       .  S
C448        C449   1.445       .  A
C449        N450   1.435       .  S
N450        H454   1.041       .  S
N450        H455   1.042       .  S
N453        H456   1.044       .  S
N453        H457   1.046       .  S
C458        C459   1.394       .  A
C458        C463   1.401       .  A
C458        H465   1.084       .  S
C459        C460   1.399       .  A
C460        C461   1.400       .  A
C460        N467   1.439       .  S
C461        C462   1.422       .  A
C461        H466   1.072       .  S
C462        C463   1.447       .  A
C463        N464   1.445       .  S
N464        H468   1.046       .  S
N464        H469   1.037       .  S
N467        H470   1.046       .  S
N467        H471   1.046       .  S
C472        C473   1.420       .  A
C472        C477   1.400       .  A
C472        H479   1.078       .  S
C473        C474   1.431       .  A
C474        C475   1.405       .  A
C474        N481   1.429       .  S
C475        C476   1.398       .  A
C475        H480   1.084       .  S
C476        C477   1.413       .  A
C477        N478   1.433       .  S
N478        H482   1.045       .  S
N478        H483   1.045       .  S
N481        H484   1.046       .  S
N481        H485   1.046       .  S
C486        C487   1.403       .  A
C486        C491   1.405       .  A
C486        H493   1.084       .  S
C487        C488   1.405       .  A
C488        C489   1.392       .  A
C488        N495   1.434       .  S
C489        C490   1.421       .  A
C489        H494   1.078       .  S
C490        C491   1.422       .  A
C491        N492   1.431       .  S
N492        H496   1.045       .  S
N492        H497   1.045       .  S
N495        H498   1.046       .  S
N495        H499   1.044       .  S
C500        C501   1.385       .  A
C500        C505   1.393       .  A
C500        H507   1.086       .  S
C501        C502   1.409       .  A
C502        C503   1.406       .  A
C502        N509   1.438       .  S
C503        C504   1.425       .  A
C503        H508   1.074       .  S
C504        C505   1.450       .  A
C505        N506   1.427       .  S
N506        H510   1.042       .  S
N506        H511   1.041       .  S
N509        H512   1.041       .  S
N509        H513   1.045       .  S
