geometry optimzed in LAMMPS
_audit_creation_date              2020-11-30 
_audit_creation_method            'lammps2cif' 
_symmetry_space_group_name_H-M    'P1' 
_symmetry_Int_Tables_number       1 
_symmetry_cell_setting            triclinic 
loop_ 
_symmetry_equiv_pos_as_xyz 
  x,y,z 
_cell_length_a                    28.833312988086305 
_cell_length_b                    29.355451076183105 
_cell_length_c                    32.623825212745786 
_cell_angle_alpha                 89.94670368149549 
_cell_angle_beta                  90.01288248682037 
_cell_angle_gamma                 89.97046742402254 
loop_ 
_atom_site_label 
_atom_site_type_symbol 
_atom_site_fract_x 
_atom_site_fract_y 
_atom_site_fract_z 
_atom_site_charge 
N1          N  0.19369999  0.33450131  0.20394544    -0.05180
N2          N  0.18597240  0.36474515  0.17486339    -0.57300
N3          N  0.16089622  0.30354488  0.29775595    -0.04860
N4          N  0.13009456  0.31156774  0.32683515    -0.59420
N5          N  0.19344336  0.33491878  0.29808063    -0.04450
N6          N  0.18577665  0.36466000  0.32763521    -0.57270
N7          N  0.16183169  0.30243496  0.20328672    -0.04130
N8          N  0.13189752  0.31005492  0.17332682    -0.59780
C9          C  0.14775540  0.34883326  0.15574166     0.97000
C10         C  0.14626252  0.34960276  0.34537474     0.96780
N11         N  0.19573409  0.16492929  0.29886421    -0.05360
N12         N  0.18842265  0.13453368  0.32790697    -0.57870
N13         N  0.16201278  0.19482927  0.20507399    -0.03480
N14         N  0.13052611  0.18527981  0.17697930    -0.59130
N15         N  0.19528123  0.16414563  0.20483120    -0.05390
N16         N  0.18743054  0.13336599  0.17619099    -0.58140
N17         N  0.16264903  0.19579762  0.29884650    -0.03120
N18         N  0.13213266  0.18686783  0.32797196    -0.59210
Mn19       Mn  0.16036307  0.24921466  0.25121914     1.18440
C20         C  0.14876166  0.14859676  0.34604901     0.99080
C21         C  0.14704422  0.14707977  0.15904067     0.99750
N22         N  0.30226001  0.33597431  0.29820149    -0.05410
N23         N  0.30884727  0.36594611  0.32771095    -0.61720
N24         N  0.33578385  0.30522685  0.20432325    -0.04210
N25         N  0.36642565  0.31368012  0.17522306    -0.62390
N26         N  0.30253610  0.33590645  0.20377420    -0.04920
N27         N  0.30954341  0.36558826  0.17396878    -0.61990
N28         N  0.33492682  0.30467290  0.29885480    -0.03810
N29         N  0.36427934  0.31252473  0.32916908    -0.62680
Mn30       Mn  0.24799006  0.33663527  0.25099565     1.10660
C31         C  0.34714335  0.35052159  0.34710854     1.00300
C32         C  0.34940252  0.35118651  0.15635856     1.00380
N33         N  0.30442117  0.16590880  0.20460185    -0.04930
N34         N  0.31174636  0.13576642  0.17544087    -0.60300
N35         N  0.33753787  0.19759112  0.29804685    -0.04240
N36         N  0.36915048  0.18960603  0.32643470    -0.57030
N37         N  0.30517331  0.16603100  0.29881391    -0.05560
N38         N  0.31389014  0.13603271  0.32802418    -0.59870
N39         N  0.33665619  0.19758479  0.20392527    -0.04540
N40         N  0.36664085  0.18947171  0.17412091    -0.57050
Mn41       Mn  0.25020895  0.16402482  0.25182528     1.20190
Mn42       Mn  0.33772445  0.25135422  0.25124319     1.10090
Cl43       Cl  0.24904071  0.25027112  0.25131001    -0.85020
C44         C  0.35052371  0.15076703  0.15648125     0.97310
C45         C  0.35363212  0.15146362  0.34508368     0.97110
C46         C  0.44805071  0.45888618  0.46806831    -0.01550
C47         C  0.45054181  0.04368516  0.46829224    -0.01550
C48         C  0.04945545  0.45650595  0.47043181    -0.01550
C49         C  0.05052647  0.04126132  0.47017680    -0.01550
C50         C  0.02426205  0.99933525  0.45321604     0.01510
C51         C  0.47618488  0.00055264  0.45263287     0.01500
C52         C  0.44620686  0.45875466  0.03162535    -0.01550
C53         C  0.04736057  0.45675862  0.03412535    -0.01550
C54         C  0.47418588  0.43216314  0.00052325     0.01510
C55         C  0.02028800  0.43111456  0.00155698     0.01500
C56         C  0.04945965  0.04107019  0.03409985    -0.01550
C57         C  0.47306651  0.00055622  0.04883600     0.01510
C58         C  0.02125900  0.99953208  0.04972372     0.01500
C59         C  0.07960460  0.47608766  0.00310214     0.01510
C60         C  0.08038012  0.02053657  0.00258528     0.01500
C61         C  0.47741392  0.06872760  0.00077539     0.01510
C62         C  0.02343679  0.06778586  0.00200081     0.01500
C63         C  0.44825989  0.04354946  0.03179392    -0.01550
C64         C  0.41636043  0.47965175  0.99895632     0.01510
C65         C  0.41736669  0.02429576  0.99911035     0.01500
C66         C  0.37712955  0.36152330  0.41834092     0.24540
C67         C  0.37206177  0.37718656  0.37808928    -0.23570
C68         C  0.39087947  0.41919241  0.36699135     0.19440
C69         C  0.41511487  0.44529606  0.39548955     0.24480
C70         C  0.42076266  0.43043375  0.43651894    -0.23520
C71         C  0.40076604  0.38792050  0.44741594     0.19380
F72         F  0.40471579  0.37101103  0.48592493    -0.13470
F73         F  0.35858055  0.32092460  0.42967474    -0.15840
F74         F  0.43413716  0.48431375  0.38171772    -0.15840
F75         F  0.38696251  0.43448738  0.32781817    -0.13470
C76         C  0.38778915  0.10136262  0.44708584     0.24540
C77         C  0.42701865  0.07462852  0.43655283    -0.23570
C78         C  0.44406109  0.07795281  0.39600879     0.19440
C79         C  0.42027057  0.10334963  0.36641899     0.24480
C80         C  0.37963792  0.12677406  0.37673110    -0.23520
C81         C  0.36404258  0.12641931  0.41727154     0.19380
F82         F  0.32592737  0.15078035  0.42809992    -0.13470
F83         F  0.37197304  0.10345966  0.48619003    -0.15840
F84         F  0.43636850  0.10424944  0.32730826    -0.15840
F85         F  0.48394697  0.05694822  0.38465826    -0.13470
C86         C  0.07361507  0.37763668  0.37853616     0.24540
C87         C  0.12202691  0.37395781  0.37861287    -0.23570
C88         C  0.14725543  0.39493515  0.41001810     0.19440
C89         C  0.12457908  0.41964542  0.44069785     0.24480
C90         C  0.07567917  0.42630477  0.43945281    -0.23520
C91         C  0.05096762  0.40378404  0.40822203     0.19380
F92         F  0.00453850  0.40689622  0.40601629    -0.13470
F93         F  0.04812453  0.35742808  0.34864256    -0.15840
F94         F  0.15132300  0.43637791  0.47141178    -0.15840
F95         F  0.19413312  0.39072899  0.41156092    -0.13470
C96         C  0.37153388  0.41990434  0.06017070     0.24540
C97         C  0.41997040  0.42888071  0.06289573    -0.23570
C98         C  0.44419085  0.40945736  0.09613386     0.19440
C99         C  0.42158879  0.38287630  0.12552723     0.24480
C100        C  0.37360967  0.37604140  0.12340793    -0.23520
C101        C  0.34877893  0.39474740  0.09057776     0.19380
F102        F  0.30227851  0.38820017  0.08761101    -0.13470
F103        F  0.34523396  0.43607621  0.02887385    -0.15840
F104        F  0.44645509  0.36573171  0.15736715    -0.15840
F105        F  0.48974728  0.41741384  0.10146743    -0.13470
C106        C  0.12039429  0.05640397  0.42366081     0.24510
C107        C  0.07694812  0.07044280  0.43899280    -0.23570
C108        C  0.05847756  0.11202784  0.42431728     0.19440
C109        C  0.08166713  0.13738559  0.39433553     0.24480
C110        C  0.12473928  0.12282967  0.37898299    -0.23520
C111        C  0.14415351  0.08242308  0.39462824     0.19380
F112        F  0.18632926  0.06757086  0.38181580    -0.13470
F113        F  0.14084610  0.01774670  0.43713293    -0.15840
F114        F  0.06143165  0.17609032  0.38016900    -0.15840
F115        F  0.01759640  0.12850863  0.43843356    -0.13470
C116        C  0.08614056  0.44626907  0.10447515     0.24540
C117        C  0.07401928  0.42800966  0.06572977    -0.23570
C118        C  0.08773786  0.38258072  0.05709851     0.19440
C119        C  0.11083841  0.35630999  0.08664643     0.24480
C120        C  0.12235886  0.37516707  0.12468983    -0.23520
C121        C  0.11026471  0.42028725  0.13318011     0.19380
F122        F  0.12072772  0.43902832  0.17010603    -0.13470
F123        F  0.07422034  0.48905057  0.11565537    -0.15840
F124        F  0.12323157  0.31283982  0.07761966    -0.15840
F125        F  0.07915927  0.36320641  0.02013161    -0.13470
C126        C  0.36215616  0.07971895  0.11553056     0.24540
C127        C  0.37425585  0.12524297  0.12330163    -0.23570
C128        C  0.40958103  0.14524926  0.09971275     0.19440
C129        C  0.43283614  0.11999156  0.06956015     0.24480
C130        C  0.42202662  0.07338977  0.06284786    -0.23520
C131        C  0.38562453  0.05443385  0.08596568     0.19380
F132        F  0.37181128  0.01115889  0.07984035    -0.13470
F133        F  0.32800047  0.05880801  0.13714829    -0.15840
F134        F  0.46702166  0.14124887  0.04834176    -0.15840
F135        F  0.42182302  0.18939015  0.10573372    -0.13470
C136        C  0.05183898  0.08744695  0.10018065     0.24540
C137        C  0.07582049  0.06949731  0.06616754    -0.23570
C138        C  0.12450857  0.07747826  0.06395707     0.19440
C139        C  0.14728148  0.10240215  0.09432526     0.24480
C140        C  0.12248298  0.12149028  0.12687164    -0.23520
C141        C  0.07454576  0.11417145  0.12945750     0.19380
F142        F  0.05003600  0.13069191  0.16172904    -0.13470
F143        F  0.00710430  0.07627727  0.10709908    -0.15840
F144        F  0.19385781  0.10855908  0.09145127    -0.15840
F145        F  0.15114252  0.06127281  0.03293825    -0.13470
N146        N  0.19369999  0.33450131  0.70394544    -0.05180
N147        N  0.18597240  0.36474514  0.67486339    -0.57300
N148        N  0.16089623  0.30354488  0.79775594    -0.04860
N149        N  0.13009456  0.31156774  0.82683515    -0.59420
N150        N  0.19344337  0.33491878  0.79808062    -0.04450
N151        N  0.18577665  0.36466000  0.82763521    -0.57270
N152        N  0.16183169  0.30243495  0.70328672    -0.04130
N153        N  0.13189752  0.31005492  0.67332682    -0.59780
C154        C  0.14775540  0.34883326  0.65574166     0.97000
C155        C  0.14626253  0.34960275  0.84537473     0.96780
N156        N  0.19573409  0.16492929  0.79886421    -0.05360
N157        N  0.18842265  0.13453368  0.82790697    -0.57870
N158        N  0.16201278  0.19482926  0.70507399    -0.03480
N159        N  0.13052611  0.18527981  0.67697930    -0.59130
N160        N  0.19528123  0.16414563  0.70483120    -0.05390
N161        N  0.18743053  0.13336599  0.67619098    -0.58140
N162        N  0.16264904  0.19579761  0.79884650    -0.03120
N163        N  0.13213266  0.18686783  0.82797196    -0.59210
Mn164      Mn  0.16036307  0.24921466  0.75121913     1.18440
C165        C  0.14876166  0.14859676  0.84604901     0.99080
C166        C  0.14704422  0.14707977  0.65904067     0.99750
N167        N  0.30226001  0.33597431  0.79820149    -0.05410
N168        N  0.30884727  0.36594611  0.82771095    -0.61720
N169        N  0.33578385  0.30522685  0.70432324    -0.04210
N170        N  0.36642565  0.31368012  0.67522305    -0.62390
N171        N  0.30253611  0.33590645  0.70377420    -0.04920
N172        N  0.30954341  0.36558826  0.67396878    -0.61990
N173        N  0.33492682  0.30467290  0.79885480    -0.03810
N174        N  0.36427934  0.31252473  0.82916907    -0.62680
Mn175      Mn  0.24799006  0.33663526  0.75099564     1.10660
C176        C  0.34714336  0.35052159  0.84710854     1.00300
C177        C  0.34940253  0.35118651  0.65635856     1.00380
N178        N  0.30442117  0.16590880  0.70460185    -0.04930
N179        N  0.31174636  0.13576642  0.67544086    -0.60300
N180        N  0.33753787  0.19759111  0.79804685    -0.04240
N181        N  0.36915048  0.18960602  0.82643470    -0.57030
N182        N  0.30517331  0.16603100  0.79881391    -0.05560
N183        N  0.31389014  0.13603271  0.82802418    -0.59870
N184        N  0.33665619  0.19758478  0.70392527    -0.04540
N185        N  0.36664085  0.18947170  0.67412090    -0.57050
Mn186      Mn  0.25020895  0.16402482  0.75182528     1.20190
Mn187      Mn  0.33772445  0.25135421  0.75124318     1.10090
Cl188      Cl  0.24904071  0.25027112  0.75131001    -0.85020
C189        C  0.35052371  0.15076703  0.65648125     0.97310
C190        C  0.35363212  0.15146362  0.84508368     0.97110
C191        C  0.44805072  0.45888618  0.96806831    -0.01550
C192        C  0.45054181  0.04368516  0.96829225    -0.01550
C193        C  0.04945545  0.45650595  0.97043181    -0.01550
C194        C  0.05052647  0.04126132  0.97017680    -0.01550
C195        C  0.02426205  0.99933525  0.95321604     0.01510
C196        C  0.47618488  0.00055265  0.95263287     0.01500
C197        C  0.44620686  0.45875466  0.53162535    -0.01550
C198        C  0.04736057  0.45675862  0.53412535    -0.01550
C199        C  0.47418588  0.43216314  0.50052325     0.01510
C200        C  0.02028800  0.43111456  0.50155698     0.01500
C201        C  0.04945965  0.04107019  0.53409985    -0.01550
C202        C  0.47306651  0.00055622  0.54883600     0.01510
C203        C  0.02125900  0.99953208  0.54972372     0.01500
C204        C  0.07960460  0.47608767  0.50310214     0.01510
C205        C  0.08038012  0.02053657  0.50258528     0.01500
C206        C  0.47741392  0.06872759  0.50077538     0.01510
C207        C  0.02343679  0.06778586  0.50200080     0.01500
C208        C  0.44825989  0.04354946  0.53179392    -0.01550
C209        C  0.41636043  0.47965175  0.49895633     0.01510
C210        C  0.41736669  0.02429576  0.49911035     0.01500
C211        C  0.37712951  0.36152332  0.91834092     0.24540
C212        C  0.37206177  0.37718656  0.87808928    -0.23570
C213        C  0.39087952  0.41919239  0.86699134     0.19440
C214        C  0.41511492  0.44529603  0.89548954     0.24480
C215        C  0.42076267  0.43043375  0.93651894    -0.23520
C216        C  0.40076601  0.38792052  0.94741594     0.19380
F217        F  0.40471573  0.37101107  0.98592494    -0.13470
F218        F  0.35858048  0.32092464  0.92967475    -0.15840
F219        F  0.43413725  0.48431370  0.88171769    -0.15840
F220        F  0.38696260  0.43448733  0.82781814    -0.13470
C221        C  0.38778915  0.10136262  0.94708584     0.24540
C222        C  0.42701865  0.07462852  0.93655283    -0.23570
C223        C  0.44406109  0.07795281  0.89600879     0.19440
C224        C  0.42027057  0.10334963  0.86641899     0.24480
C225        C  0.37963792  0.12677406  0.87673110    -0.23520
C226        C  0.36404258  0.12641931  0.91727154     0.19380
F227        F  0.32592737  0.15078035  0.92809992    -0.13470
F228        F  0.37197304  0.10345966  0.98619003    -0.15840
F229        F  0.43636850  0.10424944  0.82730826    -0.15840
F230        F  0.48394698  0.05694823  0.88465827    -0.13470
C231        C  0.07361508  0.37763665  0.87853618     0.24540
C232        C  0.12202692  0.37395780  0.87861287    -0.23570
C233        C  0.14725543  0.39493517  0.91001809     0.19440
C234        C  0.12457909  0.41964545  0.94069783     0.24480
C235        C  0.07567918  0.42630476  0.93945281    -0.23520
C236        C  0.05096762  0.40378401  0.90822205     0.19380
F237        F  0.00453850  0.40689614  0.90601634    -0.13470
F238        F  0.04812453  0.35742803  0.84864260    -0.15840
F239        F  0.15132301  0.43637795  0.97141175    -0.15840
F240        F  0.19413313  0.39072904  0.91156089    -0.13470
C241        C  0.37153389  0.41990432  0.56017069     0.24540
C242        C  0.41997040  0.42888071  0.56289573    -0.23570
C243        C  0.44419085  0.40945738  0.59613387     0.19440
C244        C  0.42158879  0.38287632  0.62552724     0.24480
C245        C  0.37360968  0.37604140  0.62340793    -0.23520
C246        C  0.34877893  0.39474739  0.59057776     0.19380
F247        F  0.30227852  0.38820014  0.58761099    -0.13470
F248        F  0.34523397  0.43607618  0.52887384    -0.15840
F249        F  0.44645509  0.36573174  0.65736717    -0.15840
F250        F  0.48974727  0.41741387  0.60146745    -0.13470
C251        C  0.12039431  0.05640399  0.92366083     0.24510
C252        C  0.07694813  0.07044280  0.93899280    -0.23570
C253        C  0.05847756  0.11202783  0.92431727     0.19440
C254        C  0.08166712  0.13738557  0.89433552     0.24480
C255        C  0.12473928  0.12282967  0.87898300    -0.23520
C256        C  0.14415353  0.08242309  0.89462826     0.19380
F257        F  0.18632929  0.06757090  0.88181584    -0.13470
F258        F  0.14084614  0.01774673  0.93713297    -0.15840
F259        F  0.06143163  0.17609029  0.88016897    -0.15840
F260        F  0.01759638  0.12850860  0.93843353    -0.13470
C261        C  0.08614059  0.44626908  0.60447514     0.24540
C262        C  0.07401928  0.42800966  0.56572977    -0.23570
C263        C  0.08773784  0.38258071  0.55709851     0.19440
C264        C  0.11083839  0.35630998  0.58664644     0.24480
C265        C  0.12235886  0.37516707  0.62468983    -0.23520
C266        C  0.11026473  0.42028726  0.63318010     0.19380
F267        F  0.12072777  0.43902833  0.67010601    -0.13470
F268        F  0.07422038  0.48905059  0.61565536    -0.15840
F269        F  0.12323151  0.31283980  0.57761968    -0.15840
F270        F  0.07915923  0.36320639  0.52013162    -0.13470
C271        C  0.36215615  0.07971895  0.61553056     0.24540
C272        C  0.37425585  0.12524297  0.62330163    -0.23570
C273        C  0.40958103  0.14524926  0.59971276     0.19440
C274        C  0.43283615  0.11999155  0.56956015     0.24480
C275        C  0.42202662  0.07338977  0.56284785    -0.23520
C276        C  0.38562453  0.05443385  0.58596567     0.19380
F277        F  0.37181127  0.01115889  0.57984034    -0.13470
F278        F  0.32800046  0.05880801  0.63714828    -0.15840
F279        F  0.46702167  0.14124886  0.54834176    -0.15840
F280        F  0.42182303  0.18939014  0.60573373    -0.13470
C281        C  0.05183898  0.08744695  0.60018064     0.24540
C282        C  0.07582048  0.06949732  0.56616754    -0.23570
C283        C  0.12450856  0.07747827  0.56395707     0.19440
C284        C  0.14728147  0.10240216  0.59432525     0.24480
C285        C  0.12248298  0.12149028  0.62687164    -0.23520
C286        C  0.07454576  0.11417145  0.62945750     0.19380
F287        F  0.05003600  0.13069191  0.66172905    -0.13470
F288        F  0.00710430  0.07627727  0.60709908    -0.15840
F289        F  0.19385780  0.10855909  0.59145126    -0.15840
F290        F  0.15114252  0.06127283  0.53293824    -0.13470
N291        N  0.19369885  0.83450113  0.20394556    -0.05180
N292        N  0.18597068  0.86474525  0.17486385    -0.57300
N293        N  0.16089522  0.80354447  0.29775604    -0.04860
N294        N  0.13009328  0.81156721  0.32683506    -0.59420
N295        N  0.19344212  0.83491859  0.29808079    -0.04450
N296        N  0.18577499  0.86465986  0.32763526    -0.57270
N297        N  0.16183085  0.80243449  0.20328677    -0.04130
N298        N  0.13189631  0.81005455  0.17332716    -0.59780
C299        C  0.14775361  0.84883330  0.15574225     0.97000
C300        C  0.14626085  0.84960240  0.34537464     0.96780
N301        N  0.19573526  0.66492932  0.29886469    -0.05360
N302        N  0.18842438  0.63453414  0.32790792    -0.57870
N303        N  0.16201374  0.69482866  0.20507438    -0.03480
N304        N  0.13052725  0.68527890  0.17697965    -0.59130
N305        N  0.19528242  0.66414526  0.20483176    -0.05390
N306        N  0.18743205  0.63336546  0.17619163    -0.58140
N307        N  0.16264992  0.69579736  0.29884680    -0.03120
N308        N  0.13213391  0.68686781  0.32797259    -0.59210
Mn309      Mn  0.16036308  0.74921413  0.25121930     1.18440
C310        C  0.14876344  0.64859721  0.34605003     0.99080
C311        C  0.14704571  0.64707891  0.15904120     0.99750
N312        N  0.30225870  0.83597436  0.29820177    -0.05410
N313        N  0.30884529  0.86594587  0.32771157    -0.61720
N314        N  0.33578310  0.80522724  0.20432362    -0.04210
N315        N  0.36642485  0.81368067  0.17522345    -0.62390
N316        N  0.30253510  0.83590659  0.20377451    -0.04920
N317        N  0.30954220  0.86558838  0.17396903    -0.61990
N318        N  0.33492582  0.80467325  0.29885511    -0.03810
N319        N  0.36427785  0.81252499  0.32916975    -0.62680
Mn320      Mn  0.24798894  0.83663522  0.25099584     1.10660
C321        C  0.34714126  0.85052147  0.34710938     1.00300
C322        C  0.34940144  0.85118687  0.15635889     1.00380
N323        N  0.30442235  0.66590881  0.20460229    -0.04930
N324        N  0.31174796  0.63576624  0.17544153    -0.60300
N325        N  0.33753871  0.69759164  0.29804729    -0.04240
N326        N  0.36915156  0.68960672  0.32643500    -0.57030
N327        N  0.30517446  0.66603124  0.29881439    -0.05560
N328        N  0.31389174  0.63603289  0.32802451    -0.59870
N329        N  0.33665707  0.69758507  0.20392561    -0.04540
N330        N  0.36664196  0.68947198  0.17412139    -0.57050
Mn331      Mn  0.25021008  0.66402479  0.25182577     1.20190
Mn332      Mn  0.33772444  0.75135468  0.25124353     1.10090
Cl333      Cl  0.24904071  0.75027110  0.25131025    -0.85020
C334        C  0.35052527  0.65076699  0.15648192     0.97310
C335        C  0.35363367  0.65146407  0.34508392     0.97110
C336        C  0.44804910  0.95888594  0.46806854    -0.01550
C337        C  0.45054361  0.54368544  0.46829238    -0.01550
C338        C  0.04945381  0.95650587  0.47043170    -0.01550
C339        C  0.05052829  0.54126141  0.47017730    -0.01550
C340        C  0.02426384  0.49933548  0.45321622     0.01510
C341        C  0.47618666  0.50055295  0.45263293     0.01500
C342        C  0.44620550  0.95875471  0.03162554    -0.01550
C343        C  0.04735920  0.95675882  0.03412530    -0.01550
C344        C  0.47418443  0.93216310  0.00052348     0.01510
C345        C  0.02028654  0.93111464  0.00155706     0.01500
C346        C  0.04946122  0.54106983  0.03410031    -0.01550
C347        C  0.47306788  0.50055604  0.04883603     0.01510
C348        C  0.02126035  0.49953178  0.04972387     0.01500
C349        C  0.07960313  0.97608781  0.00310190     0.01510
C350        C  0.08038166  0.52053636  0.00258574     0.01500
C351        C  0.47741566  0.56872767  0.00077575     0.01510
C352        C  0.02343854  0.56778585  0.00200135     0.01500
C353        C  0.44826142  0.54354946  0.03179410    -0.01550
C354        C  0.41635893  0.97965158  0.99895655     0.01510
C355        C  0.41736829  0.52429597  0.99911031     0.01500
C356        C  0.37712821  0.86152275  0.41834150     0.24540
C357        C  0.37205934  0.87718654  0.37809015    -0.23570
C358        C  0.39087596  0.91919289  0.36699238     0.19440
C359        C  0.41511160  0.94529646  0.39549042     0.24480
C360        C  0.42076081  0.93043348  0.43651945    -0.23520
C361        C  0.40076498  0.88791987  0.44741640     0.19380
F362        F  0.40471561  0.87101004  0.48592520    -0.13470
F363        F  0.35857998  0.82092367  0.42967519    -0.15840
F364        F  0.43413259  0.98431484  0.38171877    -0.15840
F365        F  0.38695777  0.93448842  0.32781947    -0.13470
C366        C  0.38779182  0.60136387  0.44708619     0.24540
C367        C  0.42702063  0.57462894  0.43655293    -0.23570
C368        C  0.44406250  0.57795259  0.39600864     0.19440
C369        C  0.42027188  0.60334943  0.36641888     0.24480
C370        C  0.37963977  0.62677463  0.37673128    -0.23520
C371        C  0.36404521  0.62642068  0.41727197     0.19380
F372        F  0.32593067  0.65078255  0.42810065    -0.13470
F373        F  0.37197642  0.60346155  0.48619056    -0.15840
F374        F  0.43636928  0.60424866  0.32730797    -0.15840
F375        F  0.48394828  0.55694790  0.38465797    -0.13470
C376        C  0.07361327  0.87763742  0.37853530     0.24540
C377        C  0.12202503  0.87395730  0.37861279    -0.23570
C378        C  0.14725339  0.89493353  0.41001872     0.19440
C379        C  0.12457705  0.91964390  0.44069841     0.24480
C380        C  0.07567733  0.92630446  0.43945269    -0.23520
C381        C  0.05096584  0.90378494  0.40822113     0.19380
F382        F  0.00453689  0.90689898  0.40601427    -0.13470
F383        F  0.04812291  0.85743005  0.34864091    -0.15840
F384        F  0.15132081  0.93637568  0.47141275    -0.15840
F385        F  0.19413095  0.89072627  0.41156219    -0.13470
C386        C  0.37153268  0.91990409  0.06017078     0.24540
C387        C  0.41996912  0.92888089  0.06289600    -0.23570
C388        C  0.44418954  0.90945818  0.09613444     0.19440
C389        C  0.42158753  0.88287720  0.12552787     0.24480
C390        C  0.37360850  0.87604182  0.12340832    -0.23520
C391        C  0.34877776  0.89474728  0.09057793     0.19380
F392        F  0.30227742  0.88819963  0.08761102    -0.13470
F393        F  0.34523279  0.93607541  0.02887368    -0.15840
F394        F  0.44645375  0.86573315  0.15736808    -0.15840
F395        F  0.48974583  0.91741529  0.10146826    -0.13470
C396        C  0.12039760  0.55640563  0.42366325     0.24510
C397        C  0.07695025  0.57044313  0.43899371    -0.23570
C398        C  0.05847887  0.61202740  0.42431731     0.19440
C399        C  0.08166840  0.63738528  0.39433568     0.24480
C400        C  0.12474143  0.62283040  0.37898431    -0.23520
C401        C  0.14415681  0.58242501  0.39463089     0.19380
F402        F  0.18633372  0.56757429  0.38182002    -0.13470
F403        F  0.14085057  0.51774950  0.43713663    -0.15840
F404        F  0.06143201  0.67608907  0.38016809    -0.15840
F405        F  0.01759710  0.62850748  0.43843283    -0.13470
C406        C  0.08614009  0.94626963  0.10447481     0.24540
C407        C  0.07401781  0.92800980  0.06572984    -0.23570
C408        C  0.08773500  0.88258027  0.05709926     0.19440
C409        C  0.11083527  0.85630953  0.08664740     0.24480
C410        C  0.12235685  0.87516707  0.12469037    -0.23520
C411        C  0.11026392  0.92028775  0.13318000     0.19380
F412        F  0.12072782  0.93902932  0.17010551    -0.13470
F413        F  0.07422115  0.98905168  0.11565439    -0.15840
F414        F  0.12322713  0.81283886  0.07762119    -0.15840
F415        F  0.07915543  0.86320538  0.02013279    -0.13470
C416        C  0.36215774  0.57971897  0.11553096     0.24540
C417        C  0.37425761  0.62524291  0.12330231    -0.23570
C418        C  0.40958299  0.64524911  0.09971358     0.19440
C419        C  0.43283796  0.61999148  0.06956078     0.24480
C420        C  0.42202820  0.57338978  0.06284818    -0.23520
C421        C  0.38562603  0.55443392  0.08596593     0.19380
F422        F  0.37181261  0.51115904  0.07984039    -0.13470
F423        F  0.32800190  0.55880805  0.13714850    -0.15840
F424        F  0.46702365  0.64124874  0.04834256    -0.15840
F425        F  0.42182536  0.68938983  0.10573489    -0.13470
C426        C  0.05184059  0.58744648  0.10018102     0.24540
C427        C  0.07582222  0.56949637  0.06616824    -0.23570
C428        C  0.12451054  0.57747622  0.06395837     0.19440
C429        C  0.14728340  0.60240009  0.09432656     0.24480
C430        C  0.12248468  0.62148912  0.12687235    -0.23520
C431        C  0.07454735  0.61417095  0.12945785     0.19380
F432        F  0.05003741  0.63069203  0.16172903    -0.13470
F433        F  0.00710577  0.57627722  0.10709924    -0.15840
F434        F  0.19385991  0.60855607  0.09145314    -0.15840
F435        F  0.15114482  0.56126961  0.03294026    -0.13470
N436        N  0.19369885  0.83450113  0.70394555    -0.05180
N437        N  0.18597068  0.86474525  0.67486385    -0.57300
N438        N  0.16089523  0.80354447  0.79775604    -0.04860
N439        N  0.13009328  0.81156721  0.82683507    -0.59420
N440        N  0.19344212  0.83491860  0.79808078    -0.04450
N441        N  0.18577500  0.86465986  0.82763526    -0.57270
N442        N  0.16183085  0.80243449  0.70328677    -0.04130
N443        N  0.13189631  0.81005455  0.67332716    -0.59780
C444        C  0.14775360  0.84883330  0.65574224     0.97000
C445        C  0.14626086  0.84960240  0.84537464     0.96780
N446        N  0.19573526  0.66492933  0.79886469    -0.05360
N447        N  0.18842438  0.63453415  0.82790792    -0.57870
N448        N  0.16201374  0.69482867  0.70507438    -0.03480
N449        N  0.13052725  0.68527890  0.67697965    -0.59130
N450        N  0.19528242  0.66414526  0.70483176    -0.05390
N451        N  0.18743205  0.63336546  0.67619163    -0.58140
N452        N  0.16264991  0.69579736  0.79884680    -0.03120
N453        N  0.13213391  0.68686781  0.82797260    -0.59210
Mn454      Mn  0.16036308  0.74921414  0.75121930     1.18440
C455        C  0.14876344  0.64859722  0.84605003     0.99080
C456        C  0.14704571  0.64707892  0.65904120     0.99750
N457        N  0.30225870  0.83597436  0.79820177    -0.05410
N458        N  0.30884530  0.86594588  0.82771156    -0.61720
N459        N  0.33578310  0.80522723  0.70432362    -0.04210
N460        N  0.36642485  0.81368066  0.67522345    -0.62390
N461        N  0.30253510  0.83590659  0.70377451    -0.04920
N462        N  0.30954220  0.86558837  0.67396903    -0.61990
N463        N  0.33492582  0.80467325  0.79885511    -0.03810
N464        N  0.36427785  0.81252499  0.82916975    -0.62680
Mn465      Mn  0.24798894  0.83663522  0.75099584     1.10660
C466        C  0.34714126  0.85052147  0.84710938     1.00300
C467        C  0.34940144  0.85118686  0.65635889     1.00380
N468        N  0.30442234  0.66590881  0.70460229    -0.04930
N469        N  0.31174796  0.63576624  0.67544153    -0.60300
N470        N  0.33753871  0.69759164  0.79804729    -0.04240
N471        N  0.36915155  0.68960672  0.82643500    -0.57030
N472        N  0.30517446  0.66603124  0.79881439    -0.05560
N473        N  0.31389173  0.63603288  0.82802451    -0.59870
N474        N  0.33665706  0.69758507  0.70392561    -0.04540
N475        N  0.36664196  0.68947198  0.67412139    -0.57050
Mn476      Mn  0.25021007  0.66402479  0.75182577     1.20190
Mn477      Mn  0.33772444  0.75135468  0.75124353     1.10090
Cl478      Cl  0.24904071  0.75027110  0.75131025    -0.85020
C479        C  0.35052527  0.65076699  0.65648192     0.97310
C480        C  0.35363366  0.65146407  0.84508392     0.97110
C481        C  0.44804909  0.95888594  0.96806854    -0.01550
C482        C  0.45054361  0.54368544  0.96829238    -0.01550
C483        C  0.04945381  0.95650586  0.97043170    -0.01550
C484        C  0.05052829  0.54126141  0.97017730    -0.01550
C485        C  0.02426384  0.49933547  0.95321622     0.01510
C486        C  0.47618666  0.50055294  0.95263293     0.01500
C487        C  0.44620550  0.95875471  0.53162554    -0.01550
C488        C  0.04735920  0.95675882  0.53412530    -0.01550
C489        C  0.47418443  0.93216310  0.50052348     0.01510
C490        C  0.02028654  0.93111464  0.50155706     0.01500
C491        C  0.04946121  0.54106983  0.53410031    -0.01550
C492        C  0.47306788  0.50055605  0.54883603     0.01510
C493        C  0.02126036  0.49953178  0.54972387     0.01500
C494        C  0.07960312  0.97608782  0.50310189     0.01510
C495        C  0.08038166  0.52053637  0.50258574     0.01500
C496        C  0.47741566  0.56872768  0.50077575     0.01510
C497        C  0.02343854  0.56778585  0.50200135     0.01500
C498        C  0.44826142  0.54354946  0.53179410    -0.01550
C499        C  0.41635894  0.97965158  0.49895655     0.01510
C500        C  0.41736829  0.52429597  0.49911031     0.01500
C501        C  0.37712820  0.86152276  0.91834151     0.24540
C502        C  0.37205934  0.87718654  0.87809015    -0.23570
C503        C  0.39087597  0.91919289  0.86699238     0.19440
C504        C  0.41511161  0.94529646  0.89549042     0.24480
C505        C  0.42076081  0.93043349  0.93651945    -0.23520
C506        C  0.40076497  0.88791988  0.94741640     0.19380
F507        F  0.40471560  0.87101005  0.98592520    -0.13470
F508        F  0.35857997  0.82092368  0.92967520    -0.15840
F509        F  0.43413261  0.98431484  0.88171877    -0.15840
F510        F  0.38695779  0.93448842  0.82781947    -0.13470
C511        C  0.38779183  0.60136388  0.94708619     0.24540
C512        C  0.42702063  0.57462894  0.93655293    -0.23570
C513        C  0.44406249  0.57795258  0.89600864     0.19440
C514        C  0.42027187  0.60334941  0.86641887     0.24480
C515        C  0.37963977  0.62677462  0.87673127    -0.23520
C516        C  0.36404522  0.62642069  0.91727197     0.19380
F517        F  0.32593068  0.65078257  0.92810066    -0.13470
F518        F  0.37197644  0.60346157  0.98619057    -0.15840
F519        F  0.43636926  0.60424863  0.82730796    -0.15840
F520        F  0.48394827  0.55694789  0.88465796    -0.13470
C521        C  0.07361328  0.87763738  0.87853533     0.24540
C522        C  0.12202504  0.87395730  0.87861279    -0.23570
C523        C  0.14725340  0.89493355  0.91001871     0.19440
C524        C  0.12457706  0.91964393  0.94069839     0.24480
C525        C  0.07567734  0.92630445  0.93945270    -0.23520
C526        C  0.05096585  0.90378490  0.90822116     0.19380
F527        F  0.00453689  0.90689887  0.90601434    -0.13470
F528        F  0.04812291  0.85742998  0.84864096    -0.15840
F529        F  0.15132082  0.93637573  0.97141273    -0.15840
F530        F  0.19413096  0.89072633  0.91156216    -0.13470
C531        C  0.37153268  0.91990408  0.56017078     0.24540
C532        C  0.41996912  0.92888089  0.56289600    -0.23570
C533        C  0.44418954  0.90945818  0.59613444     0.19440
C534        C  0.42158753  0.88287720  0.62552787     0.24480
C535        C  0.37360850  0.87604182  0.62340832    -0.23520
C536        C  0.34877776  0.89474728  0.59057792     0.19380
F537        F  0.30227742  0.88819963  0.58761101    -0.13470
F538        F  0.34523280  0.93607540  0.52887367    -0.15840
F539        F  0.44645374  0.86573315  0.65736808    -0.15840
F540        F  0.48974583  0.91741529  0.60146826    -0.13470
C541        C  0.12039761  0.55640565  0.92366326     0.24510
C542        C  0.07695025  0.57044313  0.93899371    -0.23570
C543        C  0.05847886  0.61202739  0.92431729     0.19440
C544        C  0.08166839  0.63738527  0.89433567     0.24480
C545        C  0.12474143  0.62283041  0.87898431    -0.23520
C546        C  0.14415683  0.58242503  0.89463091     0.19380
F547        F  0.18633375  0.56757432  0.88182005    -0.13470
F548        F  0.14085060  0.51774953  0.93713666    -0.15840
F549        F  0.06143198  0.67608905  0.88016806    -0.15840
F550        F  0.01759708  0.62850746  0.93843281    -0.13470
C551        C  0.08614011  0.94626964  0.60447480     0.24540
C552        C  0.07401781  0.92800980  0.56572984    -0.23570
C553        C  0.08773498  0.88258026  0.55709927     0.19440
C554        C  0.11083524  0.85630952  0.58664741     0.24480
C555        C  0.12235685  0.87516707  0.62469037    -0.23520
C556        C  0.11026394  0.92028776  0.63317999     0.19380
F557        F  0.12072787  0.93902934  0.67010549    -0.13470
F558        F  0.07422120  0.98905170  0.61565437    -0.15840
F559        F  0.12322708  0.81283884  0.57762120    -0.15840
F560        F  0.07915539  0.86320535  0.52013280    -0.13470
C561        C  0.36215774  0.57971897  0.61553096     0.24540
C562        C  0.37425761  0.62524290  0.62330231    -0.23570
C563        C  0.40958299  0.64524910  0.59971358     0.19440
C564        C  0.43283796  0.61999147  0.56956078     0.24480
C565        C  0.42202820  0.57338978  0.56284818    -0.23520
C566        C  0.38562603  0.55443391  0.58596593     0.19380
F567        F  0.37181261  0.51115904  0.57984038    -0.13470
F568        F  0.32800189  0.55880805  0.63714850    -0.15840
F569        F  0.46702365  0.64124874  0.54834256    -0.15840
F570        F  0.42182536  0.68938983  0.60573490    -0.13470
C571        C  0.05184059  0.58744648  0.60018103     0.24540
C572        C  0.07582222  0.56949637  0.56616823    -0.23570
C573        C  0.12451054  0.57747624  0.56395836     0.19440
C574        C  0.14728340  0.60240011  0.59432655     0.24480
C575        C  0.12248468  0.62148913  0.62687235    -0.23520
C576        C  0.07454735  0.61417094  0.62945785     0.19380
F577        F  0.05003741  0.63069202  0.66172904    -0.13470
F578        F  0.00710577  0.57627720  0.60709925    -0.15840
F579        F  0.19385991  0.60855610  0.59145313    -0.15840
F580        F  0.15114481  0.56126964  0.53294024    -0.13470
N581        N  0.69369999  0.33450131  0.20394544    -0.05180
N582        N  0.68597241  0.36474515  0.17486339    -0.57300
N583        N  0.66089622  0.30354488  0.29775595    -0.04860
N584        N  0.63009456  0.31156774  0.32683515    -0.59420
N585        N  0.69344337  0.33491878  0.29808063    -0.04450
N586        N  0.68577665  0.36466000  0.32763521    -0.57270
N587        N  0.66183169  0.30243496  0.20328672    -0.04130
N588        N  0.63189752  0.31005492  0.17332682    -0.59780
C589        C  0.64775540  0.34883326  0.15574166     0.97000
C590        C  0.64626252  0.34960276  0.34537474     0.96780
N591        N  0.69573409  0.16492929  0.29886421    -0.05360
N592        N  0.68842265  0.13453368  0.32790697    -0.57870
N593        N  0.66201278  0.19482927  0.20507399    -0.03480
N594        N  0.63052611  0.18527982  0.17697930    -0.59130
N595        N  0.69528123  0.16414564  0.20483120    -0.05390
N596        N  0.68743054  0.13336599  0.17619099    -0.58140
N597        N  0.66264904  0.19579762  0.29884650    -0.03120
N598        N  0.63213266  0.18686783  0.32797196    -0.59210
Mn599      Mn  0.66036307  0.24921466  0.25121914     1.18440
C600        C  0.64876166  0.14859676  0.34604901     0.99080
C601        C  0.64704422  0.14707977  0.15904067     0.99750
N602        N  0.80226001  0.33597431  0.29820150    -0.05410
N603        N  0.80884727  0.36594611  0.32771095    -0.61720
N604        N  0.83578385  0.30522685  0.20432325    -0.04210
N605        N  0.86642565  0.31368012  0.17522305    -0.62390
N606        N  0.80253610  0.33590645  0.20377420    -0.04920
N607        N  0.80954341  0.36558826  0.17396878    -0.61990
N608        N  0.83492682  0.30467290  0.29885480    -0.03810
N609        N  0.86427934  0.31252473  0.32916908    -0.62680
Mn610      Mn  0.74799006  0.33663527  0.25099565     1.10660
C611        C  0.84714335  0.35052159  0.34710854     1.00300
C612        C  0.84940252  0.35118651  0.15635856     1.00380
N613        N  0.80442117  0.16590880  0.20460185    -0.04930
N614        N  0.81174637  0.13576643  0.17544086    -0.60300
N615        N  0.83753788  0.19759112  0.29804685    -0.04240
N616        N  0.86915048  0.18960603  0.32643470    -0.57030
N617        N  0.80517332  0.16603100  0.29881391    -0.05560
N618        N  0.81389014  0.13603271  0.32802418    -0.59870
N619        N  0.83665619  0.19758479  0.20392527    -0.04540
N620        N  0.86664086  0.18947171  0.17412091    -0.57050
Mn621      Mn  0.75020895  0.16402482  0.25182528     1.20190
Mn622      Mn  0.83772445  0.25135422  0.25124319     1.10090
Cl623      Cl  0.74904071  0.25027112  0.25131001    -0.85020
C624        C  0.85052372  0.15076703  0.15648125     0.97310
C625        C  0.85363212  0.15146362  0.34508368     0.97110
C626        C  0.94805071  0.45888618  0.46806831    -0.01550
C627        C  0.95054180  0.04368516  0.46829225    -0.01550
C628        C  0.54945545  0.45650595  0.47043181    -0.01550
C629        C  0.55052647  0.04126132  0.47017680    -0.01550
C630        C  0.52426205  0.99933525  0.45321604     0.01510
C631        C  0.97618488  0.00055265  0.45263287     0.01500
C632        C  0.94620686  0.45875466  0.03162535    -0.01550
C633        C  0.54736057  0.45675862  0.03412535    -0.01550
C634        C  0.97418588  0.43216314  0.00052325     0.01510
C635        C  0.52028800  0.43111456  0.00155698     0.01500
C636        C  0.54945965  0.04107019  0.03409985    -0.01550
C637        C  0.97306651  0.00055622  0.04883600     0.01510
C638        C  0.52125900  0.99953208  0.04972372     0.01500
C639        C  0.57960460  0.47608766  0.00310214     0.01510
C640        C  0.58038012  0.02053657  0.00258528     0.01500
C641        C  0.97741392  0.06872760  0.00077538     0.01510
C642        C  0.52343679  0.06778586  0.00200081     0.01500
C643        C  0.94825989  0.04354946  0.03179392    -0.01550
C644        C  0.91636043  0.47965175  0.99895632     0.01510
C645        C  0.91736669  0.02429576  0.99911035     0.01500
C646        C  0.87712956  0.36152329  0.41834092     0.24540
C647        C  0.87206177  0.37718656  0.37808928    -0.23570
C648        C  0.89087946  0.41919241  0.36699136     0.19440
C649        C  0.91511486  0.44529606  0.39548956     0.24480
C650        C  0.92076266  0.43043375  0.43651894    -0.23520
C651        C  0.90076605  0.38792050  0.44741594     0.19380
F652        F  0.90471580  0.37101102  0.48592493    -0.13470
F653        F  0.85858057  0.32092459  0.42967474    -0.15840
F654        F  0.93413714  0.48431375  0.38171773    -0.15840
F655        F  0.88696250  0.43448738  0.32781817    -0.13470
C656        C  0.88778915  0.10136261  0.44708584     0.24540
C657        C  0.92701865  0.07462852  0.43655283    -0.23570
C658        C  0.94406109  0.07795282  0.39600880     0.19440
C659        C  0.92027057  0.10334964  0.36641899     0.24480
C660        C  0.87963792  0.12677406  0.37673110    -0.23520
C661        C  0.86404257  0.12641930  0.41727154     0.19380
F662        F  0.82592736  0.15078034  0.42809992    -0.13470
F663        F  0.87197303  0.10345965  0.48619002    -0.15840
F664        F  0.93636851  0.10424945  0.32730826    -0.15840
F665        F  0.98394698  0.05694823  0.38465827    -0.13470
C666        C  0.57361507  0.37763668  0.37853616     0.24540
C667        C  0.62202691  0.37395781  0.37861287    -0.23570
C668        C  0.64725543  0.39493515  0.41001810     0.19440
C669        C  0.62457909  0.41964543  0.44069784     0.24480
C670        C  0.57567917  0.42630477  0.43945281    -0.23520
C671        C  0.55096762  0.40378404  0.40822204     0.19380
F672        F  0.50453850  0.40689621  0.40601630    -0.13470
F673        F  0.54812453  0.35742808  0.34864256    -0.15840
F674        F  0.65132300  0.43637791  0.47141177    -0.15840
F675        F  0.69413312  0.39072899  0.41156091    -0.13470
C676        C  0.87153388  0.41990434  0.06017069     0.24540
C677        C  0.91997040  0.42888071  0.06289573    -0.23570
C678        C  0.94419085  0.40945736  0.09613386     0.19440
C679        C  0.92158879  0.38287631  0.12552723     0.24480
C680        C  0.87360967  0.37604140  0.12340793    -0.23520
C681        C  0.84877893  0.39474740  0.09057776     0.19380
F682        F  0.80227851  0.38820017  0.08761101    -0.13470
F683        F  0.84523396  0.43607621  0.02887385    -0.15840
F684        F  0.94645509  0.36573172  0.15736715    -0.15840
F685        F  0.98974728  0.41741384  0.10146743    -0.13470
C686        C  0.62039430  0.05640398  0.42366081     0.24510
C687        C  0.57694813  0.07044280  0.43899280    -0.23570
C688        C  0.55847756  0.11202784  0.42431727     0.19440
C689        C  0.58166712  0.13738558  0.39433552     0.24480
C690        C  0.62473928  0.12282967  0.37898299    -0.23520
C691        C  0.64415352  0.08242309  0.39462825     0.19380
F692        F  0.68632927  0.06757088  0.38181582    -0.13470
F693        F  0.64084612  0.01774671  0.43713295    -0.15840
F694        F  0.56143164  0.17609031  0.38016899    -0.15840
F695        F  0.51759639  0.12850862  0.43843354    -0.13470
C696        C  0.58614056  0.44626907  0.10447515     0.24540
C697        C  0.57401928  0.42800966  0.06572977    -0.23570
C698        C  0.58773786  0.38258073  0.05709851     0.19440
C699        C  0.61083842  0.35630999  0.08664643     0.24480
C700        C  0.62235886  0.37516707  0.12468983    -0.23520
C701        C  0.61026471  0.42028725  0.13318011     0.19380
F702        F  0.62072772  0.43902831  0.17010603    -0.13470
F703        F  0.57422033  0.48905057  0.11565538    -0.15840
F704        F  0.62323157  0.31283982  0.07761966    -0.15840
F705        F  0.57915928  0.36320641  0.02013161    -0.13470
C706        C  0.86215615  0.07971896  0.11553056     0.24540
C707        C  0.87425585  0.12524297  0.12330163    -0.23570
C708        C  0.90958103  0.14524926  0.09971276     0.19440
C709        C  0.93283615  0.11999155  0.06956015     0.24480
C710        C  0.92202662  0.07338977  0.06284786    -0.23520
C711        C  0.88562453  0.05443386  0.08596567     0.19380
F712        F  0.87181127  0.01115890  0.07984034    -0.13470
F713        F  0.82800046  0.05880802  0.13714828    -0.15840
F714        F  0.96702167  0.14124887  0.04834176    -0.15840
F715        F  0.92182303  0.18939014  0.10573373    -0.13470
C716        C  0.55183898  0.08744695  0.10018064     0.24540
C717        C  0.57582049  0.06949732  0.06616754    -0.23570
C718        C  0.62450857  0.07747826  0.06395707     0.19440
C719        C  0.64728148  0.10240215  0.09432525     0.24480
C720        C  0.62248298  0.12149028  0.12687164    -0.23520
C721        C  0.57454576  0.11417145  0.12945750     0.19380
F722        F  0.55003600  0.13069192  0.16172904    -0.13470
F723        F  0.50710430  0.07627728  0.10709908    -0.15840
F724        F  0.69385781  0.10855908  0.09145127    -0.15840
F725        F  0.65114252  0.06127282  0.03293825    -0.13470
N726        N  0.69369999  0.33450131  0.70394544    -0.05180
N727        N  0.68597241  0.36474514  0.67486339    -0.57300
N728        N  0.66089623  0.30354488  0.79775594    -0.04860
N729        N  0.63009456  0.31156774  0.82683515    -0.59420
N730        N  0.69344337  0.33491878  0.79808062    -0.04450
N731        N  0.68577665  0.36466000  0.82763521    -0.57270
N732        N  0.66183169  0.30243495  0.70328672    -0.04130
N733        N  0.63189752  0.31005492  0.67332682    -0.59780
C734        C  0.64775540  0.34883326  0.65574166     0.97000
C735        C  0.64626253  0.34960276  0.84537473     0.96780
N736        N  0.69573409  0.16492929  0.79886421    -0.05360
N737        N  0.68842265  0.13453368  0.82790697    -0.57870
N738        N  0.66201278  0.19482926  0.70507399    -0.03480
N739        N  0.63052611  0.18527981  0.67697930    -0.59130
N740        N  0.69528123  0.16414563  0.70483120    -0.05390
N741        N  0.68743053  0.13336599  0.67619099    -0.58140
N742        N  0.66264903  0.19579761  0.79884650    -0.03120
N743        N  0.63213266  0.18686783  0.82797196    -0.59210
Mn744      Mn  0.66036307  0.24921466  0.75121913     1.18440
C745        C  0.64876166  0.14859676  0.84604901     0.99080
C746        C  0.64704422  0.14707977  0.65904067     0.99750
N747        N  0.80226001  0.33597431  0.79820149    -0.05410
N748        N  0.80884727  0.36594611  0.82771095    -0.61720
N749        N  0.83578385  0.30522684  0.70432324    -0.04210
N750        N  0.86642565  0.31368012  0.67522305    -0.62390
N751        N  0.80253611  0.33590645  0.70377420    -0.04920
N752        N  0.80954341  0.36558826  0.67396878    -0.61990
N753        N  0.83492682  0.30467290  0.79885480    -0.03810
N754        N  0.86427934  0.31252473  0.82916908    -0.62680
Mn755      Mn  0.74799006  0.33663526  0.75099564     1.10660
C756        C  0.84714336  0.35052159  0.84710854     1.00300
C757        C  0.84940253  0.35118651  0.65635856     1.00380
N758        N  0.80442117  0.16590880  0.70460185    -0.04930
N759        N  0.81174636  0.13576642  0.67544087    -0.60300
N760        N  0.83753787  0.19759111  0.79804685    -0.04240
N761        N  0.86915048  0.18960602  0.82643470    -0.57030
N762        N  0.80517331  0.16603100  0.79881391    -0.05560
N763        N  0.81389014  0.13603271  0.82802418    -0.59870
N764        N  0.83665619  0.19758478  0.70392527    -0.04540
N765        N  0.86664085  0.18947170  0.67412091    -0.57050
Mn766      Mn  0.75020895  0.16402482  0.75182528     1.20190
Mn767      Mn  0.83772445  0.25135421  0.75124318     1.10090
Cl768      Cl  0.74904071  0.25027112  0.75131001    -0.85020
C769        C  0.85052371  0.15076703  0.65648125     0.97310
C770        C  0.85363212  0.15146361  0.84508368     0.97110
C771        C  0.94805072  0.45888618  0.96806831    -0.01550
C772        C  0.95054181  0.04368516  0.96829224    -0.01550
C773        C  0.54945545  0.45650595  0.97043181    -0.01550
C774        C  0.55052647  0.04126132  0.97017680    -0.01550
C775        C  0.52426205  0.99933525  0.95321604     0.01510
C776        C  0.97618488  0.00055264  0.95263287     0.01500
C777        C  0.94620686  0.45875466  0.53162535    -0.01550
C778        C  0.54736057  0.45675862  0.53412535    -0.01550
C779        C  0.97418588  0.43216314  0.50052325     0.01510
C780        C  0.52028800  0.43111456  0.50155698     0.01500
C781        C  0.54945965  0.04107019  0.53409985    -0.01550
C782        C  0.97306651  0.00055622  0.54883600     0.01510
C783        C  0.52125900  0.99953208  0.54972372     0.01500
C784        C  0.57960460  0.47608767  0.50310214     0.01510
C785        C  0.58038012  0.02053657  0.50258528     0.01500
C786        C  0.97741392  0.06872759  0.50077538     0.01510
C787        C  0.52343679  0.06778586  0.50200080     0.01500
C788        C  0.94825989  0.04354946  0.53179392    -0.01550
C789        C  0.91636043  0.47965175  0.49895633     0.01510
C790        C  0.91736669  0.02429576  0.49911035     0.01500
C791        C  0.87712952  0.36152332  0.91834092     0.24540
C792        C  0.87206177  0.37718656  0.87808928    -0.23570
C793        C  0.89087951  0.41919239  0.86699134     0.19440
C794        C  0.91511491  0.44529604  0.89548954     0.24480
C795        C  0.92076267  0.43043375  0.93651894    -0.23520
C796        C  0.90076601  0.38792052  0.94741594     0.19380
F797        F  0.90471573  0.37101106  0.98592494    -0.13470
F798        F  0.85858049  0.32092463  0.92967475    -0.15840
F799        F  0.93413724  0.48431370  0.88171769    -0.15840
F800        F  0.88696259  0.43448733  0.82781814    -0.13470
C801        C  0.88778916  0.10136262  0.94708584     0.24540
C802        C  0.92701865  0.07462851  0.93655283    -0.23570
C803        C  0.94406108  0.07795280  0.89600879     0.19440
C804        C  0.92027056  0.10334962  0.86641898     0.24480
C805        C  0.87963791  0.12677405  0.87673109    -0.23520
C806        C  0.86404259  0.12641932  0.91727154     0.19380
F807        F  0.82592739  0.15078037  0.92809993    -0.13470
F808        F  0.87197306  0.10345967  0.98619003    -0.15840
F809        F  0.93636848  0.10424941  0.82730825    -0.15840
F810        F  0.98394697  0.05694822  0.88465826    -0.13470
C811        C  0.57361507  0.37763665  0.87853618     0.24540
C812        C  0.62202692  0.37395780  0.87861287    -0.23570
C813        C  0.64725543  0.39493518  0.91001809     0.19440
C814        C  0.62457909  0.41964545  0.94069783     0.24480
C815        C  0.57567918  0.42630476  0.93945281    -0.23520
C816        C  0.55096762  0.40378401  0.90822206     0.19380
F817        F  0.50453850  0.40689613  0.90601635    -0.13470
F818        F  0.54812453  0.35742802  0.84864260    -0.15840
F819        F  0.65132301  0.43637795  0.97141175    -0.15840
F820        F  0.69413313  0.39072904  0.91156089    -0.13470
C821        C  0.87153389  0.41990432  0.56017069     0.24540
C822        C  0.91997040  0.42888071  0.56289573    -0.23570
C823        C  0.94419086  0.40945738  0.59613387     0.19440
C824        C  0.92158879  0.38287632  0.62552725     0.24480
C825        C  0.87360968  0.37604140  0.62340793    -0.23520
C826        C  0.84877893  0.39474738  0.59057776     0.19380
F827        F  0.80227853  0.38820013  0.58761099    -0.13470
F828        F  0.84523397  0.43607618  0.52887383    -0.15840
F829        F  0.94645509  0.36573174  0.65736717    -0.15840
F830        F  0.98974727  0.41741388  0.60146745    -0.13470
C831        C  0.62039430  0.05640398  0.92366082     0.24510
C832        C  0.57694813  0.07044280  0.93899280    -0.23570
C833        C  0.55847756  0.11202784  0.92431728     0.19440
C834        C  0.58166712  0.13738558  0.89433553     0.24480
C835        C  0.62473928  0.12282967  0.87898299    -0.23520
C836        C  0.64415352  0.08242309  0.89462825     0.19380
F837        F  0.68632927  0.06757088  0.88181582    -0.13470
F838        F  0.64084612  0.01774671  0.93713295    -0.15840
F839        F  0.56143164  0.17609031  0.88016899    -0.15840
F840        F  0.51759639  0.12850862  0.93843355    -0.13470
C841        C  0.58614058  0.44626908  0.60447515     0.24540
C842        C  0.57401928  0.42800966  0.56572977    -0.23570
C843        C  0.58773785  0.38258072  0.55709851     0.19440
C844        C  0.61083840  0.35630999  0.58664644     0.24480
C845        C  0.62235886  0.37516707  0.62468983    -0.23520
C846        C  0.61026473  0.42028726  0.63318011     0.19380
F847        F  0.62072775  0.43902832  0.67010602    -0.13470
F848        F  0.57422036  0.48905058  0.61565536    -0.15840
F849        F  0.62323154  0.31283981  0.57761967    -0.15840
F850        F  0.57915925  0.36320640  0.52013162    -0.13470
C851        C  0.86215615  0.07971895  0.61553056     0.24540
C852        C  0.87425585  0.12524297  0.62330163    -0.23570
C853        C  0.90958103  0.14524926  0.59971276     0.19440
C854        C  0.93283615  0.11999155  0.56956015     0.24480
C855        C  0.92202662  0.07338977  0.56284786    -0.23520
C856        C  0.88562453  0.05443385  0.58596567     0.19380
F857        F  0.87181128  0.01115889  0.57984034    -0.13470
F858        F  0.82800046  0.05880801  0.63714828    -0.15840
F859        F  0.96702167  0.14124887  0.54834176    -0.15840
F860        F  0.92182302  0.18939014  0.60573373    -0.13470
C861        C  0.55183898  0.08744694  0.60018065     0.24540
C862        C  0.57582049  0.06949732  0.56616754    -0.23570
C863        C  0.62450856  0.07747827  0.56395707     0.19440
C864        C  0.64728147  0.10240216  0.59432525     0.24480
C865        C  0.62248298  0.12149028  0.62687164    -0.23520
C866        C  0.57454576  0.11417144  0.62945750     0.19380
F867        F  0.55003600  0.13069191  0.66172905    -0.13470
F868        F  0.50710430  0.07627727  0.60709908    -0.15840
F869        F  0.69385780  0.10855909  0.59145127    -0.15840
F870        F  0.65114252  0.06127283  0.53293825    -0.13470
N871        N  0.69369885  0.83450113  0.20394556    -0.05180
N872        N  0.68597068  0.86474525  0.17486385    -0.57300
N873        N  0.66089522  0.80354447  0.29775604    -0.04860
N874        N  0.63009328  0.81156721  0.32683506    -0.59420
N875        N  0.69344212  0.83491859  0.29808079    -0.04450
N876        N  0.68577499  0.86465986  0.32763526    -0.57270
N877        N  0.66183085  0.80243449  0.20328677    -0.04130
N878        N  0.63189631  0.81005455  0.17332716    -0.59780
C879        C  0.64775360  0.84883330  0.15574225     0.97000
C880        C  0.64626085  0.84960240  0.34537464     0.96780
N881        N  0.69573526  0.66492932  0.29886469    -0.05360
N882        N  0.68842438  0.63453414  0.32790792    -0.57870
N883        N  0.66201374  0.69482866  0.20507438    -0.03480
N884        N  0.63052725  0.68527890  0.17697965    -0.59130
N885        N  0.69528242  0.66414526  0.20483176    -0.05390
N886        N  0.68743206  0.63336546  0.17619164    -0.58140
N887        N  0.66264992  0.69579736  0.29884680    -0.03120
N888        N  0.63213391  0.68686781  0.32797259    -0.59210
Mn889      Mn  0.66036308  0.74921413  0.25121930     1.18440
C890        C  0.64876344  0.64859721  0.34605003     0.99080
C891        C  0.64704571  0.64707891  0.15904120     0.99750
N892        N  0.80225870  0.83597436  0.29820177    -0.05410
N893        N  0.80884529  0.86594587  0.32771157    -0.61720
N894        N  0.83578310  0.80522723  0.20432362    -0.04210
N895        N  0.86642485  0.81368067  0.17522345    -0.62390
N896        N  0.80253510  0.83590659  0.20377451    -0.04920
N897        N  0.80954220  0.86558837  0.17396903    -0.61990
N898        N  0.83492582  0.80467325  0.29885511    -0.03810
N899        N  0.86427785  0.81252499  0.32916975    -0.62680
Mn900      Mn  0.74798894  0.83663522  0.25099584     1.10660
C901        C  0.84714126  0.85052147  0.34710938     1.00300
C902        C  0.84940144  0.85118687  0.15635889     1.00380
N903        N  0.80442234  0.66590881  0.20460229    -0.04930
N904        N  0.81174796  0.63576624  0.17544153    -0.60300
N905        N  0.83753871  0.69759164  0.29804729    -0.04240
N906        N  0.86915156  0.68960672  0.32643500    -0.57030
N907        N  0.80517446  0.66603124  0.29881439    -0.05560
N908        N  0.81389174  0.63603289  0.32802451    -0.59870
N909        N  0.83665707  0.69758507  0.20392561    -0.04540
N910        N  0.86664196  0.68947198  0.17412139    -0.57050
Mn911      Mn  0.75021008  0.66402479  0.25182577     1.20190
Mn912      Mn  0.83772444  0.75135468  0.25124353     1.10090
Cl913      Cl  0.74904071  0.75027110  0.25131025    -0.85020
C914        C  0.85052527  0.65076699  0.15648192     0.97310
C915        C  0.85363367  0.65146407  0.34508392     0.97110
C916        C  0.94804909  0.95888594  0.46806854    -0.01550
C917        C  0.95054361  0.54368545  0.46829238    -0.01550
C918        C  0.54945381  0.95650586  0.47043170    -0.01550
C919        C  0.55052829  0.54126141  0.47017730    -0.01550
C920        C  0.52426384  0.49933548  0.45321622     0.01510
C921        C  0.97618666  0.50055295  0.45263293     0.01500
C922        C  0.94620550  0.95875471  0.03162554    -0.01550
C923        C  0.54735920  0.95675882  0.03412530    -0.01550
C924        C  0.97418443  0.93216310  0.00052348     0.01510
C925        C  0.52028654  0.93111464  0.00155706     0.01500
C926        C  0.54946122  0.54106983  0.03410031    -0.01550
C927        C  0.97306788  0.50055605  0.04883603     0.01510
C928        C  0.52126035  0.49953178  0.04972387     0.01500
C929        C  0.57960312  0.97608782  0.00310190     0.01510
C930        C  0.58038166  0.52053636  0.00258574     0.01500
C931        C  0.97741566  0.56872767  0.00077575     0.01510
C932        C  0.52343854  0.56778584  0.00200135     0.01500
C933        C  0.94826142  0.54354946  0.03179410    -0.01550
C934        C  0.91635893  0.97965158  0.99895655     0.01510
C935        C  0.91736829  0.52429597  0.99911031     0.01500
C936        C  0.87712823  0.86152274  0.41834150     0.24540
C937        C  0.87205934  0.87718654  0.37809015    -0.23570
C938        C  0.89087594  0.91919290  0.36699239     0.19440
C939        C  0.91511158  0.94529647  0.39549043     0.24480
C940        C  0.92076081  0.93043348  0.43651945    -0.23520
C941        C  0.90076499  0.88791986  0.44741639     0.19380
F942        F  0.90471564  0.87101002  0.48592519    -0.13470
F943        F  0.85858002  0.82092365  0.42967518    -0.15840
F944        F  0.93413254  0.98431487  0.38171879    -0.15840
F945        F  0.88695773  0.93448845  0.32781948    -0.13470
C946        C  0.88779182  0.60136387  0.44708619     0.24540
C947        C  0.92702063  0.57462895  0.43655293    -0.23570
C948        C  0.94406250  0.57795259  0.39600865     0.19440
C949        C  0.92027188  0.60334943  0.36641888     0.24480
C950        C  0.87963977  0.62677463  0.37673128    -0.23520
C951        C  0.86404521  0.62642068  0.41727197     0.19380
F952        F  0.82593066  0.65078255  0.42810065    -0.13470
F953        F  0.87197641  0.60346155  0.48619056    -0.15840
F954        F  0.93636929  0.60424866  0.32730797    -0.15840
F955        F  0.98394828  0.55694790  0.38465797    -0.13470
C956        C  0.57361327  0.87763740  0.37853532     0.24540
C957        C  0.62202503  0.87395730  0.37861279    -0.23570
C958        C  0.64725339  0.89493354  0.41001872     0.19440
C959        C  0.62457705  0.91964391  0.44069840     0.24480
C960        C  0.57567733  0.92630446  0.43945269    -0.23520
C961        C  0.55096585  0.90378493  0.40822115     0.19380
F962        F  0.50453689  0.90689894  0.40601430    -0.13470
F963        F  0.54812291  0.85743002  0.34864093    -0.15840
F964        F  0.65132081  0.93637570  0.47141274    -0.15840
F965        F  0.69413095  0.89072629  0.41156218    -0.13470
C966        C  0.87153268  0.91990410  0.06017078     0.24540
C967        C  0.91996911  0.92888090  0.06289600    -0.23570
C968        C  0.94418954  0.90945817  0.09613444     0.19440
C969        C  0.92158752  0.88287719  0.12552787     0.24480
C970        C  0.87360849  0.87604182  0.12340832    -0.23520
C971        C  0.84877776  0.89474730  0.09057793     0.19380
F972        F  0.80227741  0.88819965  0.08761103    -0.13470
F973        F  0.84523279  0.93607543  0.02887369    -0.15840
F974        F  0.94645375  0.86573313  0.15736806    -0.15840
F975        F  0.98974583  0.91741527  0.10146825    -0.13470
C976        C  0.62039760  0.55640564  0.42366325     0.24510
C977        C  0.57695025  0.57044313  0.43899371    -0.23570
C978        C  0.55847887  0.61202740  0.42431731     0.19440
C979        C  0.58166840  0.63738527  0.39433568     0.24480
C980        C  0.62474143  0.62283041  0.37898431    -0.23520
C981        C  0.64415682  0.58242501  0.39463089     0.19380
F982        F  0.68633373  0.56757429  0.38182002    -0.13470
F983        F  0.64085058  0.51774951  0.43713663    -0.15840
F984        F  0.56143200  0.67608907  0.38016809    -0.15840
F985        F  0.51759710  0.62850747  0.43843283    -0.13470
C986        C  0.58614011  0.94626964  0.10447480     0.24540
C987        C  0.57401781  0.92800980  0.06572984    -0.23570
C988        C  0.58773498  0.88258026  0.05709927     0.19440
C989        C  0.61083524  0.85630952  0.08664741     0.24480
C990        C  0.62235684  0.87516707  0.12469037    -0.23520
C991        C  0.61026394  0.92028776  0.13317999     0.19380
F992        F  0.62072787  0.93902933  0.17010549    -0.13470
F993        F  0.57422120  0.98905170  0.11565437    -0.15840
F994        F  0.62322707  0.81283884  0.07762121    -0.15840
F995        F  0.57915538  0.86320535  0.02013281    -0.13470
C996        C  0.86215774  0.57971897  0.11553096     0.24540
C997        C  0.87425761  0.62524291  0.12330231    -0.23570
C998        C  0.90958299  0.64524911  0.09971358     0.19440
C999        C  0.93283796  0.61999148  0.06956078     0.24480
C1000       C  0.92202820  0.57338978  0.06284818    -0.23520
C1001       C  0.88562603  0.55443392  0.08596593     0.19380
F1002       F  0.87181261  0.51115904  0.07984039    -0.13470
F1003       F  0.82800190  0.55880805  0.13714850    -0.15840
F1004       F  0.96702365  0.64124874  0.04834256    -0.15840
F1005       F  0.92182536  0.68938983  0.10573489    -0.13470
C1006       C  0.55184059  0.58744648  0.10018102     0.24540
C1007       C  0.57582222  0.56949637  0.06616824    -0.23570
C1008       C  0.62451055  0.57747622  0.06395837     0.19440
C1009       C  0.64728341  0.60240008  0.09432656     0.24480
C1010       C  0.62248468  0.62148912  0.12687235    -0.23520
C1011       C  0.57454735  0.61417095  0.12945785     0.19380
F1012       F  0.55003741  0.63069203  0.16172903    -0.13470
F1013       F  0.50710577  0.57627722  0.10709924    -0.15840
F1014       F  0.69385992  0.60855607  0.09145314    -0.15840
F1015       F  0.65114482  0.56126960  0.03294026    -0.13470
N1016       N  0.69369885  0.83450113  0.70394555    -0.05180
N1017       N  0.68597068  0.86474526  0.67486385    -0.57300
N1018       N  0.66089522  0.80354447  0.79775604    -0.04860
N1019       N  0.63009328  0.81156721  0.82683506    -0.59420
N1020       N  0.69344212  0.83491860  0.79808078    -0.04450
N1021       N  0.68577499  0.86465986  0.82763526    -0.57270
N1022       N  0.66183085  0.80243449  0.70328677    -0.04130
N1023       N  0.63189631  0.81005455  0.67332716    -0.59780
C1024       C  0.64775361  0.84883330  0.65574224     0.97000
C1025       C  0.64626085  0.84960241  0.84537464     0.96780
N1026       N  0.69573526  0.66492933  0.79886469    -0.05360
N1027       N  0.68842438  0.63453415  0.82790792    -0.57870
N1028       N  0.66201374  0.69482867  0.70507438    -0.03480
N1029       N  0.63052725  0.68527890  0.67697965    -0.59130
N1030       N  0.69528242  0.66414526  0.70483176    -0.05390
N1031       N  0.68743205  0.63336546  0.67619163    -0.58140
N1032       N  0.66264991  0.69579736  0.79884680    -0.03120
N1033       N  0.63213391  0.68686781  0.82797260    -0.59210
Mn1034     Mn  0.66036308  0.74921414  0.75121930     1.18440
C1035       C  0.64876344  0.64859722  0.84605003     0.99080
C1036       C  0.64704571  0.64707892  0.65904120     0.99750
N1037       N  0.80225870  0.83597436  0.79820177    -0.05410
N1038       N  0.80884529  0.86594588  0.82771156    -0.61720
N1039       N  0.83578311  0.80522723  0.70432362    -0.04210
N1040       N  0.86642485  0.81368066  0.67522345    -0.62390
N1041       N  0.80253510  0.83590659  0.70377451    -0.04920
N1042       N  0.80954220  0.86558837  0.67396903    -0.61990
N1043       N  0.83492582  0.80467325  0.79885511    -0.03810
N1044       N  0.86427785  0.81252499  0.82916975    -0.62680
Mn1045     Mn  0.74798894  0.83663522  0.75099584     1.10660
C1046       C  0.84714126  0.85052147  0.84710938     1.00300
C1047       C  0.84940144  0.85118687  0.65635889     1.00380
N1048       N  0.80442234  0.66590881  0.70460229    -0.04930
N1049       N  0.81174796  0.63576624  0.67544153    -0.60300
N1050       N  0.83753871  0.69759164  0.79804729    -0.04240
N1051       N  0.86915155  0.68960672  0.82643500    -0.57030
N1052       N  0.80517446  0.66603124  0.79881439    -0.05560
N1053       N  0.81389173  0.63603289  0.82802451    -0.59870
N1054       N  0.83665706  0.69758507  0.70392561    -0.04540
N1055       N  0.86664196  0.68947198  0.67412140    -0.57050
Mn1056     Mn  0.75021007  0.66402480  0.75182577     1.20190
Mn1057     Mn  0.83772444  0.75135468  0.75124353     1.10090
Cl1058     Cl  0.74904071  0.75027110  0.75131025    -0.85020
C1059       C  0.85052527  0.65076699  0.65648192     0.97310
C1060       C  0.85363367  0.65146407  0.84508392     0.97110
C1061       C  0.94804910  0.95888594  0.96806854    -0.01550
C1062       C  0.95054361  0.54368544  0.96829238    -0.01550
C1063       C  0.54945381  0.95650587  0.97043170    -0.01550
C1064       C  0.55052829  0.54126141  0.97017730    -0.01550
C1065       C  0.52426384  0.49933547  0.95321622     0.01510
C1066       C  0.97618666  0.50055294  0.95263293     0.01500
C1067       C  0.94620550  0.95875471  0.53162554    -0.01550
C1068       C  0.54735920  0.95675882  0.53412530    -0.01550
C1069       C  0.97418443  0.93216310  0.50052348     0.01510
C1070       C  0.52028654  0.93111464  0.50155706     0.01500
C1071       C  0.54946121  0.54106983  0.53410031    -0.01550
C1072       C  0.97306788  0.50055605  0.54883603     0.01510
C1073       C  0.52126036  0.49953178  0.54972387     0.01500
C1074       C  0.57960313  0.97608782  0.50310189     0.01510
C1075       C  0.58038166  0.52053637  0.50258574     0.01500
C1076       C  0.97741566  0.56872768  0.50077575     0.01510
C1077       C  0.52343854  0.56778585  0.50200135     0.01500
C1078       C  0.94826142  0.54354946  0.53179410    -0.01550
C1079       C  0.91635894  0.97965158  0.49895655     0.01510
C1080       C  0.91736829  0.52429597  0.49911031     0.01500
C1081       C  0.87712817  0.86152278  0.91834151     0.24540
C1082       C  0.87205935  0.87718654  0.87809014    -0.23570
C1083       C  0.89087601  0.91919287  0.86699237     0.19440
C1084       C  0.91511164  0.94529644  0.89549040     0.24480
C1085       C  0.92076081  0.93043349  0.93651944    -0.23520
C1086       C  0.90076494  0.88791989  0.94741640     0.19380
F1087       F  0.90471555  0.87101008  0.98592521    -0.13470
F1088       F  0.85857991  0.82092371  0.92967521    -0.15840
F1089       F  0.93413268  0.98431480  0.88171875    -0.15840
F1090       F  0.88695786  0.93448838  0.82781945    -0.13470
C1091       C  0.88779183  0.60136388  0.94708619     0.24540
C1092       C  0.92702063  0.57462894  0.93655293    -0.23570
C1093       C  0.94406249  0.57795258  0.89600864     0.19440
C1094       C  0.92027187  0.60334941  0.86641887     0.24480
C1095       C  0.87963977  0.62677462  0.87673127    -0.23520
C1096       C  0.86404522  0.62642069  0.91727197     0.19380
F1097       F  0.82593068  0.65078257  0.92810066    -0.13470
F1098       F  0.87197643  0.60346157  0.98619057    -0.15840
F1099       F  0.93636926  0.60424863  0.82730796    -0.15840
F1100       F  0.98394827  0.55694789  0.88465796    -0.13470
C1101       C  0.57361328  0.87763740  0.87853532     0.24540
C1102       C  0.62202503  0.87395731  0.87861279    -0.23570
C1103       C  0.64725339  0.89493354  0.91001872     0.19440
C1104       C  0.62457705  0.91964391  0.94069840     0.24480
C1105       C  0.57567733  0.92630446  0.93945270    -0.23520
C1106       C  0.55096585  0.90378493  0.90822115     0.19380
F1107       F  0.50453689  0.90689893  0.90601430    -0.13470
F1108       F  0.54812291  0.85743002  0.84864093    -0.15840
F1109       F  0.65132081  0.93637570  0.97141274    -0.15840
F1110       F  0.69413096  0.89072630  0.91156218    -0.13470
C1111       C  0.87153269  0.91990407  0.56017077     0.24540
C1112       C  0.91996912  0.92888089  0.56289600    -0.23570
C1113       C  0.94418954  0.90945819  0.59613445     0.19440
C1114       C  0.92158753  0.88287721  0.62552788     0.24480
C1115       C  0.87360850  0.87604182  0.62340832    -0.23520
C1116       C  0.84877777  0.89474727  0.59057792     0.19380
F1117       F  0.80227743  0.88819961  0.58761101    -0.13470
F1118       F  0.84523280  0.93607539  0.52887367    -0.15840
F1119       F  0.94645374  0.86573317  0.65736809    -0.15840
F1120       F  0.98974583  0.91741531  0.60146827    -0.13470
C1121       C  0.62039761  0.55640565  0.92366326     0.24510
C1122       C  0.57695025  0.57044313  0.93899371    -0.23570
C1123       C  0.55847886  0.61202739  0.92431729     0.19440
C1124       C  0.58166839  0.63738527  0.89433567     0.24480
C1125       C  0.62474143  0.62283041  0.87898431    -0.23520
C1126       C  0.64415683  0.58242503  0.89463091     0.19380
F1127       F  0.68633375  0.56757433  0.88182005    -0.13470
F1128       F  0.64085060  0.51774954  0.93713666    -0.15840
F1129       F  0.56143198  0.67608905  0.88016806    -0.15840
F1130       F  0.51759708  0.62850746  0.93843281    -0.13470
C1131       C  0.58614009  0.94626964  0.60447481     0.24540
C1132       C  0.57401782  0.92800980  0.56572984    -0.23570
C1133       C  0.58773500  0.88258027  0.55709926     0.19440
C1134       C  0.61083527  0.85630953  0.58664740     0.24480
C1135       C  0.62235685  0.87516707  0.62469037    -0.23520
C1136       C  0.61026392  0.92028775  0.63318000     0.19380
F1137       F  0.62072783  0.93902932  0.67010550    -0.13470
F1138       F  0.57422116  0.98905168  0.61565439    -0.15840
F1139       F  0.62322712  0.81283886  0.57762119    -0.15840
F1140       F  0.57915543  0.86320537  0.52013279    -0.13470
C1141       C  0.86215774  0.57971897  0.61553096     0.24540
C1142       C  0.87425761  0.62524290  0.62330231    -0.23570
C1143       C  0.90958299  0.64524910  0.59971359     0.19440
C1144       C  0.93283796  0.61999147  0.56956079     0.24480
C1145       C  0.92202820  0.57338978  0.56284819    -0.23520
C1146       C  0.88562602  0.55443392  0.58596593     0.19380
F1147       F  0.87181260  0.51115904  0.57984038    -0.13470
F1148       F  0.82800189  0.55880805  0.63714849    -0.15840
F1149       F  0.96702366  0.64124873  0.54834257    -0.15840
F1150       F  0.92182537  0.68938983  0.60573490    -0.13470
C1151       C  0.55184059  0.58744648  0.60018103     0.24540
C1152       C  0.57582222  0.56949637  0.56616823    -0.23570
C1153       C  0.62451054  0.57747623  0.56395837     0.19440
C1154       C  0.64728340  0.60240010  0.59432655     0.24480
C1155       C  0.62248468  0.62148913  0.62687235    -0.23520
C1156       C  0.57454735  0.61417095  0.62945785     0.19380
F1157       F  0.55003741  0.63069203  0.66172904    -0.13470
F1158       F  0.50710577  0.57627721  0.60709924    -0.15840
F1159       F  0.69385991  0.60855609  0.59145313    -0.15840
F1160       F  0.65114481  0.56126963  0.53294025    -0.13470
loop_ 
_geom_bond_atom_site_label_1 
_geom_bond_atom_site_label_2 
_geom_bond_distance 
_geom_bond_site_symmetry_2 
_ccdc_geom_bond_type 
N1            N2   1.318       .  A
N1            N7   1.316       .  A
N1          Mn30   2.193       .  S
N2            C9   1.350       .  A
N3            N5   1.315       .  A
N3            N4   1.321       .  A
N3          Mn19   2.203       .  S
N4           C10   1.353       .  A
N5            N6   1.320       .  A
N5          Mn30   2.199       .  S
N6           C10   1.352       .  A
N7            N8   1.323       .  A
N7          Mn19   2.210       .  S
N8            C9   1.354       .  A
C9          C120   1.469       .  S
C10          C87   1.475       .  S
N11          N17   1.315       .  A
N11          N12   1.318       .  A
N11         Mn41   2.196       .  S
N12          C20   1.352       .  A
N13          N14   1.320       .  A
N13          N15   1.316       .  A
N13         Mn19   2.196       .  S
N14          C21   1.352       .  A
N15          N16   1.320       .  A
N15         Mn41   2.204       .  S
N16          C21   1.353       .  A
N17          N18   1.321       .  A
N17         Mn19   2.207       .  S
N18          C20   1.356       .  A
Mn19        Cl43   2.557       .  S
C20         C110   1.485       .  S
C21         C140   1.473       .  S
N22          N23   1.319       .  A
N22          N28   1.316       .  A
N22         Mn30   2.195       .  S
N23          C31   1.350       .  A
N24          N26   1.315       .  A
N24          N25   1.320       .  A
N24         Mn42   2.201       .  S
N25          C32   1.353       .  A
N26          N27   1.321       .  A
N26         Mn30   2.202       .  S
N27          C32   1.353       .  A
N28          N29   1.322       .  A
N28         Mn42   2.208       .  S
N29          C31   1.353       .  A
Mn30        Cl43   2.535       .  S
C31          C67   1.467       .  S
C32         C100   1.475       .  S
N33          N34   1.317       .  A
N33          N39   1.315       .  A
N33         Mn41   2.196       .  S
N34          C44   1.352       .  A
N35          N36   1.320       .  A
N35          N37   1.316       .  A
N35         Mn42   2.195       .  S
N36          C45   1.350       .  A
N37          N38   1.321       .  A
N37         Mn41   2.205       .  S
N38          C45   1.352       .  A
N39          N40   1.323       .  A
N39         Mn42   2.209       .  S
N40          C44   1.356       .  A
Mn41        Cl43   2.532       .  S
Mn42        Cl43   2.557       .  S
C44         C127   1.484       .  S
C45          C80   1.467       .  S
C46          C70   1.542       .  S
C46         C341   1.552       .  S
C46         C199   1.517       .  S
C46         C209   1.491       .  S
C47          C77   1.534       .  S
C47          C51   1.553       .  S
C47         C206   1.505       .  S
C47         C210   1.500       .  S
C48          C90   1.543       .  S
C48         C340   1.556       .  S
C48         C200   1.514       .  S
C48         C204   1.491       .  S
C49         C107   1.533       .  S
C49          C50   1.548   1_545  S
C49         C205   1.492       .  S
C49         C207   1.515       .  S
C50         C338   1.556       .  S
C50         C631   1.387   1_465  D
C51         C336   1.552   1_545  S
C51         C630   1.387   1_545  D
C52          C97   1.543       .  S
C52          C54   1.514       .  S
C52          C64   1.500   1_554  S
C52         C347   1.557       .  S
C53         C117   1.537       .  S
C53          C55   1.519       .  S
C53          C59   1.487       .  S
C53         C348   1.550       .  S
C54         C191   1.517   1_554  S
C54         C635   1.330       .  D
C55         C193   1.514   1_554  S
C55         C634   1.330   1_455  D
C56         C137   1.540       .  S
C56          C58   1.552   1_545  S
C56          C60   1.489       .  S
C56          C62   1.507       .  S
C57          C63   1.553       .  S
C57         C342   1.557   1_545  S
C57         C638   1.390   1_545  D
C58         C343   1.550       .  S
C58         C637   1.390   1_465  D
C59         C193   1.491   1_554  S
C59         C350   1.305       .  D
C60         C194   1.492   1_554  S
C60         C349   1.305   1_545  D
C61          C63   1.509       .  S
C61         C192   1.505   1_554  S
C61         C642   1.328       .  D
C62         C194   1.515   1_554  S
C62         C641   1.328   1_455  D
C63         C130   1.539       .  S
C63          C65   1.500   1_554  S
C64         C191   1.491       .  S
C64         C355   1.311       .  D
C65         C192   1.500       .  S
C65         C354   1.311   1_545  D
C66          C67   1.399       .  A
C66          C71   1.402       .  A
C66          F73   1.358       .  S
C67          C68   1.395       .  A
C68          C69   1.393       .  A
C68          F75   1.359       .  S
C69          C70   1.417       .  A
C69          F74   1.347       .  S
C70          C71   1.420       .  A
C71          F72   1.355       .  S
C76          C77   1.419       .  A
C76          C81   1.398       .  A
C76          F83   1.356       .  S
C77          C78   1.414       .  A
C78          C79   1.399       .  A
C78          F85   1.356       .  S
C79          C80   1.399       .  A
C79          F84   1.358       .  S
C80          C81   1.397       .  A
C81          F82   1.358       .  S
C86          C87   1.400       .  A
C86          C91   1.398       .  A
C86          F93   1.358       .  S
C87          C88   1.400       .  A
C88          C89   1.399       .  A
C88          F95   1.358       .  S
C89          C90   1.424       .  A
C89          F94   1.357       .  S
C90          C91   1.409       .  A
C91          F92   1.344       .  S
C96          C97   1.424       .  A
C96         C101   1.400       .  A
C96         F103   1.357       .  S
C97          C98   1.410       .  A
C98          C99   1.397       .  A
C98         F105   1.346       .  S
C99         C100   1.400       .  A
C99         F104   1.358       .  S
C100        C101   1.400       .  A
C101        F102   1.358       .  S
C106        C107   1.410       .  A
C106        C111   1.396       .  A
C106        F113   1.352       .  S
C107        C108   1.415       .  A
C108        C109   1.399       .  A
C108        F115   1.355       .  S
C109        C110   1.406       .  A
C109        F114   1.358       .  S
C110        C111   1.407       .  A
C111        F112   1.358       .  S
C116        C117   1.417       .  A
C116        C121   1.393       .  A
C116        F123   1.352       .  S
C117        C118   1.419       .  A
C118        C119   1.402       .  A
C118        F125   1.357       .  S
C119        C120   1.399       .  A
C119        F124   1.358       .  S
C120        C121   1.397       .  A
C121        F122   1.359       .  S
C126        C127   1.405       .  A
C126        C131   1.393       .  A
C126        F133   1.358       .  S
C127        C128   1.405       .  A
C128        C129   1.403       .  A
C128        F135   1.358       .  S
C129        C130   1.420       .  A
C129        F134   1.357       .  S
C130        C131   1.407       .  A
C131        F132   1.347       .  S
C136        C137   1.410       .  A
C136        C141   1.399       .  A
C136        F143   1.350       .  S
C137        C138   1.425       .  A
C138        C139   1.396       .  A
C138        F145   1.357       .  S
C139        C140   1.398       .  A
C139        F144   1.358       .  S
C140        C141   1.401       .  A
C141        F142   1.358       .  S
N146        N147   1.318       .  A
N146        N152   1.316       .  A
N146       Mn175   2.193       .  S
N147        C154   1.350       .  A
N148        N150   1.315       .  A
N148        N149   1.321       .  A
N148       Mn164   2.203       .  S
N149        C155   1.353       .  A
N150        N151   1.320       .  A
N150       Mn175   2.199       .  S
N151        C155   1.352       .  A
N152        N153   1.323       .  A
N152       Mn164   2.210       .  S
N153        C154   1.354       .  A
C154        C265   1.469       .  S
C155        C232   1.475       .  S
N156        N162   1.315       .  A
N156        N157   1.318       .  A
N156       Mn186   2.196       .  S
N157        C165   1.352       .  A
N158        N159   1.320       .  A
N158        N160   1.316       .  A
N158       Mn164   2.196       .  S
N159        C166   1.352       .  A
N160        N161   1.320       .  A
N160       Mn186   2.204       .  S
N161        C166   1.353       .  A
N162        N163   1.321       .  A
N162       Mn164   2.207       .  S
N163        C165   1.356       .  A
Mn164      Cl188   2.557       .  S
C165        C255   1.485       .  S
C166        C285   1.473       .  S
N167        N168   1.319       .  A
N167        N173   1.316       .  A
N167       Mn175   2.195       .  S
N168        C176   1.350       .  A
N169        N171   1.315       .  A
N169        N170   1.320       .  A
N169       Mn187   2.201       .  S
N170        C177   1.353       .  A
N171        N172   1.321       .  A
N171       Mn175   2.202       .  S
N172        C177   1.353       .  A
N173        N174   1.322       .  A
N173       Mn187   2.208       .  S
N174        C176   1.353       .  A
Mn175      Cl188   2.535       .  S
C176        C212   1.467       .  S
C177        C245   1.475       .  S
N178        N179   1.317       .  A
N178        N184   1.315       .  A
N178       Mn186   2.196       .  S
N179        C189   1.352       .  A
N180        N181   1.320       .  A
N180        N182   1.316       .  A
N180       Mn187   2.195       .  S
N181        C190   1.350       .  A
N182        N183   1.321       .  A
N182       Mn186   2.205       .  S
N183        C190   1.352       .  A
N184        N185   1.323       .  A
N184       Mn187   2.209       .  S
N185        C189   1.356       .  A
Mn186      Cl188   2.532       .  S
Mn187      Cl188   2.557       .  S
C189        C272   1.484       .  S
C190        C225   1.467       .  S
C191        C215   1.542       .  S
C191        C486   1.552       .  S
C192        C222   1.534       .  S
C192        C196   1.553       .  S
C193        C235   1.543       .  S
C193        C485   1.556       .  S
C194        C252   1.533       .  S
C194        C195   1.548   1_545  S
C195        C483   1.556       .  S
C195        C776   1.387   1_465  D
C196        C481   1.552   1_545  S
C196        C775   1.387   1_545  D
C197        C242   1.543       .  S
C197        C199   1.514       .  S
C197        C492   1.557       .  S
C197        C209   1.500       .  S
C198        C262   1.537       .  S
C198        C200   1.519       .  S
C198        C493   1.550       .  S
C198        C204   1.487       .  S
C199        C780   1.330       .  D
C200        C779   1.330   1_455  D
C201        C282   1.540       .  S
C201        C203   1.552   1_545  S
C201        C205   1.489       .  S
C201        C207   1.507       .  S
C202        C487   1.557   1_545  S
C202        C208   1.553       .  S
C202        C783   1.390   1_545  D
C203        C488   1.550       .  S
C203        C782   1.390   1_465  D
C204        C495   1.305       .  D
C205        C494   1.305   1_545  D
C206        C208   1.509       .  S
C206        C787   1.328       .  D
C207        C786   1.328   1_455  D
C208        C275   1.539       .  S
C208        C210   1.500       .  S
C209        C500   1.311       .  D
C210        C499   1.311   1_545  D
C211        C212   1.399       .  A
C211        C216   1.402       .  A
C211        F218   1.358       .  S
C212        C213   1.395       .  A
C213        C214   1.393       .  A
C213        F220   1.359       .  S
C214        C215   1.417       .  A
C214        F219   1.347       .  S
C215        C216   1.420       .  A
C216        F217   1.355       .  S
C221        C222   1.419       .  A
C221        C226   1.398       .  A
C221        F228   1.356       .  S
C222        C223   1.414       .  A
C223        C224   1.399       .  A
C223        F230   1.356       .  S
C224        C225   1.399       .  A
C224        F229   1.358       .  S
C225        C226   1.397       .  A
C226        F227   1.358       .  S
C231        C232   1.400       .  A
C231        C236   1.398       .  A
C231        F238   1.358       .  S
C232        C233   1.400       .  A
C233        C234   1.399       .  A
C233        F240   1.358       .  S
C234        C235   1.424       .  A
C234        F239   1.357       .  S
C235        C236   1.409       .  A
C236        F237   1.344       .  S
C241        C242   1.424       .  A
C241        C246   1.400       .  A
C241        F248   1.357       .  S
C242        C243   1.410       .  A
C243        C244   1.397       .  A
C243        F250   1.346       .  S
C244        C245   1.400       .  A
C244        F249   1.358       .  S
C245        C246   1.400       .  A
C246        F247   1.358       .  S
C251        C252   1.410       .  A
C251        C256   1.396       .  A
C251        F258   1.352       .  S
C252        C253   1.415       .  A
C253        C254   1.399       .  A
C253        F260   1.355       .  S
C254        C255   1.406       .  A
C254        F259   1.358       .  S
C255        C256   1.407       .  A
C256        F257   1.358       .  S
C261        C262   1.417       .  A
C261        C266   1.393       .  A
C261        F268   1.352       .  S
C262        C263   1.419       .  A
C263        C264   1.402       .  A
C263        F270   1.357       .  S
C264        C265   1.399       .  A
C264        F269   1.358       .  S
C265        C266   1.397       .  A
C266        F267   1.359       .  S
C271        C272   1.405       .  A
C271        C276   1.393       .  A
C271        F278   1.358       .  S
C272        C273   1.405       .  A
C273        C274   1.403       .  A
C273        F280   1.358       .  S
C274        C275   1.420       .  A
C274        F279   1.357       .  S
C275        C276   1.407       .  A
C276        F277   1.347       .  S
C281        C282   1.410       .  A
C281        C286   1.399       .  A
C281        F288   1.350       .  S
C282        C283   1.425       .  A
C283        C284   1.396       .  A
C283        F290   1.357       .  S
C284        C285   1.398       .  A
C284        F289   1.358       .  S
C285        C286   1.401       .  A
C286        F287   1.358       .  S
N291        N292   1.318       .  A
N291        N297   1.316       .  A
N291       Mn320   2.193       .  S
N292        C299   1.350       .  A
N293        N295   1.315       .  A
N293        N294   1.321       .  A
N293       Mn309   2.203       .  S
N294        C300   1.353       .  A
N295        N296   1.320       .  A
N295       Mn320   2.199       .  S
N296        C300   1.352       .  A
N297        N298   1.323       .  A
N297       Mn309   2.210       .  S
N298        C299   1.354       .  A
C299        C410   1.469       .  S
C300        C377   1.475       .  S
N301        N307   1.315       .  A
N301        N302   1.318       .  A
N301       Mn331   2.196       .  S
N302        C310   1.352       .  A
N303        N304   1.320       .  A
N303        N305   1.316       .  A
N303       Mn309   2.196       .  S
N304        C311   1.352       .  A
N305        N306   1.320       .  A
N305       Mn331   2.204       .  S
N306        C311   1.353       .  A
N307        N308   1.321       .  A
N307       Mn309   2.207       .  S
N308        C310   1.356       .  A
Mn309      Cl333   2.557       .  S
C310        C400   1.485       .  S
C311        C430   1.473       .  S
N312        N313   1.319       .  A
N312        N318   1.316       .  A
N312       Mn320   2.195       .  S
N313        C321   1.350       .  A
N314        N316   1.315       .  A
N314        N315   1.320       .  A
N314       Mn332   2.201       .  S
N315        C322   1.353       .  A
N316        N317   1.321       .  A
N316       Mn320   2.202       .  S
N317        C322   1.353       .  A
N318        N319   1.322       .  A
N318       Mn332   2.208       .  S
N319        C321   1.353       .  A
Mn320      Cl333   2.535       .  S
C321        C357   1.467       .  S
C322        C390   1.475       .  S
N323        N324   1.317       .  A
N323        N329   1.315       .  A
N323       Mn331   2.196       .  S
N324        C334   1.352       .  A
N325        N326   1.320       .  A
N325        N327   1.316       .  A
N325       Mn332   2.195       .  S
N326        C335   1.350       .  A
N327        N328   1.321       .  A
N327       Mn331   2.205       .  S
N328        C335   1.352       .  A
N329        N330   1.323       .  A
N329       Mn332   2.209       .  S
N330        C334   1.356       .  A
Mn331      Cl333   2.532       .  S
Mn332      Cl333   2.557       .  S
C334        C417   1.484       .  S
C335        C370   1.467       .  S
C336        C360   1.542       .  S
C336        C489   1.517       .  S
C336        C499   1.491       .  S
C337        C367   1.534       .  S
C337        C341   1.553       .  S
C337        C496   1.505       .  S
C337        C500   1.500       .  S
C338        C380   1.543       .  S
C338        C490   1.514       .  S
C338        C494   1.491       .  S
C339        C397   1.533       .  S
C339        C340   1.548       .  S
C339        C495   1.492       .  S
C339        C497   1.515       .  S
C340        C921   1.387   1_455  D
C341        C920   1.387       .  D
C342        C387   1.543       .  S
C342        C344   1.514       .  S
C342        C354   1.500   1_554  S
C343        C407   1.537       .  S
C343        C345   1.519       .  S
C343        C349   1.487       .  S
C344        C481   1.517   1_554  S
C344        C925   1.330       .  D
C345        C483   1.514   1_554  S
C345        C924   1.330   1_455  D
C346        C427   1.540       .  S
C346        C348   1.552       .  S
C346        C350   1.489       .  S
C346        C352   1.507       .  S
C347        C353   1.553       .  S
C347        C928   1.390       .  D
C348        C927   1.390   1_455  D
C349        C483   1.491   1_554  S
C350        C484   1.492   1_554  S
C351        C482   1.505   1_554  S
C351        C353   1.509       .  S
C351        C932   1.328       .  D
C352        C484   1.515   1_554  S
C352        C931   1.328   1_455  D
C353        C420   1.539       .  S
C353        C355   1.500   1_554  S
C354        C481   1.491       .  S
C355        C482   1.500       .  S
C356        C357   1.399       .  A
C356        C361   1.402       .  A
C356        F363   1.358       .  S
C357        C358   1.395       .  A
C358        C359   1.393       .  A
C358        F365   1.359       .  S
C359        C360   1.417       .  A
C359        F364   1.347       .  S
C360        C361   1.420       .  A
C361        F362   1.355       .  S
C366        C367   1.419       .  A
C366        C371   1.398       .  A
C366        F373   1.356       .  S
C367        C368   1.414       .  A
C368        C369   1.399       .  A
C368        F375   1.356       .  S
C369        C370   1.399       .  A
C369        F374   1.358       .  S
C370        C371   1.397       .  A
C371        F372   1.358       .  S
C376        C377   1.400       .  A
C376        C381   1.398       .  A
C376        F383   1.358       .  S
C377        C378   1.400       .  A
C378        C379   1.399       .  A
C378        F385   1.358       .  S
C379        C380   1.424       .  A
C379        F384   1.357       .  S
C380        C381   1.409       .  A
C381        F382   1.344       .  S
C386        C387   1.424       .  A
C386        C391   1.400       .  A
C386        F393   1.357       .  S
C387        C388   1.410       .  A
C388        C389   1.397       .  A
C388        F395   1.346       .  S
C389        C390   1.400       .  A
C389        F394   1.358       .  S
C390        C391   1.400       .  A
C391        F392   1.358       .  S
C396        C397   1.410       .  A
C396        C401   1.396       .  A
C396        F403   1.352       .  S
C397        C398   1.415       .  A
C398        C399   1.399       .  A
C398        F405   1.355       .  S
C399        C400   1.406       .  A
C399        F404   1.358       .  S
C400        C401   1.407       .  A
C401        F402   1.358       .  S
C406        C407   1.417       .  A
C406        C411   1.393       .  A
C406        F413   1.352       .  S
C407        C408   1.419       .  A
C408        C409   1.402       .  A
C408        F415   1.357       .  S
C409        C410   1.399       .  A
C409        F414   1.358       .  S
C410        C411   1.397       .  A
C411        F412   1.359       .  S
C416        C417   1.405       .  A
C416        C421   1.393       .  A
C416        F423   1.358       .  S
C417        C418   1.405       .  A
C418        C419   1.403       .  A
C418        F425   1.358       .  S
C419        C420   1.420       .  A
C419        F424   1.357       .  S
C420        C421   1.407       .  A
C421        F422   1.347       .  S
C426        C427   1.410       .  A
C426        C431   1.399       .  A
C426        F433   1.350       .  S
C427        C428   1.425       .  A
C428        C429   1.396       .  A
C428        F435   1.357       .  S
C429        C430   1.398       .  A
C429        F434   1.358       .  S
C430        C431   1.401       .  A
C431        F432   1.358       .  S
N436        N437   1.318       .  A
N436        N442   1.316       .  A
N436       Mn465   2.193       .  S
N437        C444   1.350       .  A
N438        N440   1.315       .  A
N438        N439   1.321       .  A
N438       Mn454   2.203       .  S
N439        C445   1.353       .  A
N440        N441   1.320       .  A
N440       Mn465   2.199       .  S
N441        C445   1.352       .  A
N442        N443   1.323       .  A
N442       Mn454   2.210       .  S
N443        C444   1.354       .  A
C444        C555   1.469       .  S
C445        C522   1.475       .  S
N446        N452   1.315       .  A
N446        N447   1.318       .  A
N446       Mn476   2.196       .  S
N447        C455   1.352       .  A
N448        N449   1.320       .  A
N448        N450   1.316       .  A
N448       Mn454   2.196       .  S
N449        C456   1.352       .  A
N450        N451   1.320       .  A
N450       Mn476   2.204       .  S
N451        C456   1.353       .  A
N452        N453   1.321       .  A
N452       Mn454   2.207       .  S
N453        C455   1.356       .  A
Mn454      Cl478   2.557       .  S
C455        C545   1.485       .  S
C456        C575   1.473       .  S
N457        N458   1.319       .  A
N457        N463   1.316       .  A
N457       Mn465   2.195       .  S
N458        C466   1.350       .  A
N459        N461   1.315       .  A
N459        N460   1.320       .  A
N459       Mn477   2.201       .  S
N460        C467   1.353       .  A
N461        N462   1.321       .  A
N461       Mn465   2.202       .  S
N462        C467   1.353       .  A
N463        N464   1.322       .  A
N463       Mn477   2.208       .  S
N464        C466   1.353       .  A
Mn465      Cl478   2.535       .  S
C466        C502   1.467       .  S
C467        C535   1.475       .  S
N468        N469   1.317       .  A
N468        N474   1.315       .  A
N468       Mn476   2.196       .  S
N469        C479   1.352       .  A
N470        N471   1.320       .  A
N470        N472   1.316       .  A
N470       Mn477   2.195       .  S
N471        C480   1.350       .  A
N472        N473   1.321       .  A
N472       Mn476   2.205       .  S
N473        C480   1.352       .  A
N474        N475   1.323       .  A
N474       Mn477   2.209       .  S
N475        C479   1.356       .  A
Mn476      Cl478   2.532       .  S
Mn477      Cl478   2.557       .  S
C479        C562   1.484       .  S
C480        C515   1.467       .  S
C481        C505   1.542       .  S
C482        C512   1.534       .  S
C482        C486   1.553       .  S
C483        C525   1.543       .  S
C484        C542   1.533       .  S
C484        C485   1.548       .  S
C485       C1066   1.387   1_455  D
C486       C1065   1.387       .  D
C487        C532   1.543       .  S
C487        C489   1.514       .  S
C487        C499   1.500       .  S
C488        C552   1.537       .  S
C488        C490   1.519       .  S
C488        C494   1.487       .  S
C489       C1070   1.330       .  D
C490       C1069   1.330   1_455  D
C491        C572   1.540       .  S
C491        C493   1.552       .  S
C491        C495   1.489       .  S
C491        C497   1.507       .  S
C492        C498   1.553       .  S
C492       C1073   1.390       .  D
C493       C1072   1.390   1_455  D
C496        C498   1.509       .  S
C496       C1077   1.328       .  D
C497       C1076   1.328   1_455  D
C498        C565   1.539       .  S
C498        C500   1.500       .  S
C501        C502   1.399       .  A
C501        C506   1.402       .  A
C501        F508   1.358       .  S
C502        C503   1.395       .  A
C503        C504   1.393       .  A
C503        F510   1.359       .  S
C504        C505   1.417       .  A
C504        F509   1.347       .  S
C505        C506   1.420       .  A
C506        F507   1.355       .  S
C511        C512   1.419       .  A
C511        C516   1.398       .  A
C511        F518   1.356       .  S
C512        C513   1.414       .  A
C513        C514   1.399       .  A
C513        F520   1.356       .  S
C514        C515   1.399       .  A
C514        F519   1.358       .  S
C515        C516   1.397       .  A
C516        F517   1.358       .  S
C521        C522   1.400       .  A
C521        C526   1.398       .  A
C521        F528   1.358       .  S
C522        C523   1.400       .  A
C523        C524   1.399       .  A
C523        F530   1.358       .  S
C524        C525   1.424       .  A
C524        F529   1.357       .  S
C525        C526   1.409       .  A
C526        F527   1.344       .  S
C531        C532   1.424       .  A
C531        C536   1.400       .  A
C531        F538   1.357       .  S
C532        C533   1.410       .  A
C533        C534   1.397       .  A
C533        F540   1.346       .  S
C534        C535   1.400       .  A
C534        F539   1.358       .  S
C535        C536   1.400       .  A
C536        F537   1.358       .  S
C541        C542   1.410       .  A
C541        C546   1.396       .  A
C541        F548   1.352       .  S
C542        C543   1.415       .  A
C543        C544   1.399       .  A
C543        F550   1.355       .  S
C544        C545   1.406       .  A
C544        F549   1.358       .  S
C545        C546   1.407       .  A
C546        F547   1.358       .  S
C551        C552   1.417       .  A
C551        C556   1.393       .  A
C551        F558   1.352       .  S
C552        C553   1.419       .  A
C553        C554   1.402       .  A
C553        F560   1.357       .  S
C554        C555   1.399       .  A
C554        F559   1.358       .  S
C555        C556   1.397       .  A
C556        F557   1.359       .  S
C561        C562   1.405       .  A
C561        C566   1.393       .  A
C561        F568   1.358       .  S
C562        C563   1.405       .  A
C563        C564   1.403       .  A
C563        F570   1.358       .  S
C564        C565   1.420       .  A
C564        F569   1.357       .  S
C565        C566   1.407       .  A
C566        F567   1.347       .  S
C571        C572   1.410       .  A
C571        C576   1.399       .  A
C571        F578   1.350       .  S
C572        C573   1.425       .  A
C573        C574   1.396       .  A
C573        F580   1.357       .  S
C574        C575   1.398       .  A
C574        F579   1.358       .  S
C575        C576   1.401       .  A
C576        F577   1.358       .  S
N581        N582   1.318       .  A
N581        N587   1.316       .  A
N581       Mn610   2.193       .  S
N582        C589   1.350       .  A
N583        N585   1.315       .  A
N583        N584   1.321       .  A
N583       Mn599   2.203       .  S
N584        C590   1.353       .  A
N585        N586   1.320       .  A
N585       Mn610   2.199       .  S
N586        C590   1.352       .  A
N587        N588   1.323       .  A
N587       Mn599   2.210       .  S
N588        C589   1.354       .  A
C589        C700   1.469       .  S
C590        C667   1.475       .  S
N591        N597   1.315       .  A
N591        N592   1.318       .  A
N591       Mn621   2.196       .  S
N592        C600   1.352       .  A
N593        N594   1.320       .  A
N593        N595   1.316       .  A
N593       Mn599   2.196       .  S
N594        C601   1.352       .  A
N595        N596   1.320       .  A
N595       Mn621   2.204       .  S
N596        C601   1.353       .  A
N597        N598   1.321       .  A
N597       Mn599   2.207       .  S
N598        C600   1.356       .  A
Mn599      Cl623   2.557       .  S
C600        C690   1.485       .  S
C601        C720   1.473       .  S
N602        N603   1.319       .  A
N602        N608   1.316       .  A
N602       Mn610   2.195       .  S
N603        C611   1.350       .  A
N604        N606   1.315       .  A
N604        N605   1.320       .  A
N604       Mn622   2.201       .  S
N605        C612   1.353       .  A
N606        N607   1.321       .  A
N606       Mn610   2.202       .  S
N607        C612   1.353       .  A
N608        N609   1.322       .  A
N608       Mn622   2.208       .  S
N609        C611   1.353       .  A
Mn610      Cl623   2.535       .  S
C611        C647   1.467       .  S
C612        C680   1.475       .  S
N613        N614   1.317       .  A
N613        N619   1.315       .  A
N613       Mn621   2.196       .  S
N614        C624   1.352       .  A
N615        N616   1.320       .  A
N615        N617   1.316       .  A
N615       Mn622   2.195       .  S
N616        C625   1.350       .  A
N617        N618   1.321       .  A
N617       Mn621   2.205       .  S
N618        C625   1.352       .  A
N619        N620   1.323       .  A
N619       Mn622   2.209       .  S
N620        C624   1.356       .  A
Mn621      Cl623   2.532       .  S
Mn622      Cl623   2.557       .  S
C624        C707   1.484       .  S
C625        C660   1.467       .  S
C626        C650   1.542       .  S
C626        C921   1.552       .  S
C626        C779   1.517       .  S
C626        C789   1.491       .  S
C627        C657   1.534       .  S
C627        C631   1.553       .  S
C627        C786   1.505       .  S
C627        C790   1.500       .  S
C628        C670   1.543       .  S
C628        C920   1.556       .  S
C628        C780   1.514       .  S
C628        C784   1.491       .  S
C629        C687   1.533       .  S
C629        C630   1.548   1_545  S
C629        C785   1.492       .  S
C629        C787   1.515       .  S
C630        C918   1.556       .  S
C631        C916   1.552   1_545  S
C632        C677   1.543       .  S
C632        C634   1.514       .  S
C632        C927   1.557       .  S
C632        C644   1.500   1_554  S
C633        C697   1.537       .  S
C633        C635   1.519       .  S
C633        C928   1.550       .  S
C633        C639   1.487       .  S
C634        C771   1.517   1_554  S
C635        C773   1.514   1_554  S
C636        C717   1.540       .  S
C636        C638   1.552   1_545  S
C636        C640   1.489       .  S
C636        C642   1.507       .  S
C637        C922   1.557   1_545  S
C637        C643   1.553       .  S
C638        C923   1.550       .  S
C639        C773   1.491   1_554  S
C639        C930   1.305       .  D
C640        C774   1.492   1_554  S
C640        C929   1.305   1_545  D
C641        C772   1.505   1_554  S
C641        C643   1.509       .  S
C642        C774   1.515   1_554  S
C643        C710   1.539       .  S
C643        C645   1.500   1_554  S
C644        C771   1.491       .  S
C644        C935   1.311       .  D
C645        C772   1.500       .  S
C645        C934   1.311   1_545  D
C646        C647   1.399       .  A
C646        C651   1.402       .  A
C646        F653   1.358       .  S
C647        C648   1.395       .  A
C648        C649   1.393       .  A
C648        F655   1.359       .  S
C649        C650   1.417       .  A
C649        F654   1.347       .  S
C650        C651   1.420       .  A
C651        F652   1.355       .  S
C656        C657   1.419       .  A
C656        C661   1.398       .  A
C656        F663   1.356       .  S
C657        C658   1.414       .  A
C658        C659   1.399       .  A
C658        F665   1.356       .  S
C659        C660   1.399       .  A
C659        F664   1.358       .  S
C660        C661   1.397       .  A
C661        F662   1.358       .  S
C666        C667   1.400       .  A
C666        C671   1.398       .  A
C666        F673   1.358       .  S
C667        C668   1.400       .  A
C668        C669   1.399       .  A
C668        F675   1.358       .  S
C669        C670   1.424       .  A
C669        F674   1.357       .  S
C670        C671   1.409       .  A
C671        F672   1.344       .  S
C676        C677   1.424       .  A
C676        C681   1.400       .  A
C676        F683   1.357       .  S
C677        C678   1.410       .  A
C678        C679   1.397       .  A
C678        F685   1.346       .  S
C679        C680   1.400       .  A
C679        F684   1.358       .  S
C680        C681   1.400       .  A
C681        F682   1.358       .  S
C686        C687   1.410       .  A
C686        C691   1.396       .  A
C686        F693   1.352       .  S
C687        C688   1.415       .  A
C688        C689   1.399       .  A
C688        F695   1.355       .  S
C689        C690   1.406       .  A
C689        F694   1.358       .  S
C690        C691   1.407       .  A
C691        F692   1.358       .  S
C696        C697   1.417       .  A
C696        C701   1.393       .  A
C696        F703   1.352       .  S
C697        C698   1.419       .  A
C698        C699   1.402       .  A
C698        F705   1.357       .  S
C699        C700   1.399       .  A
C699        F704   1.358       .  S
C700        C701   1.397       .  A
C701        F702   1.359       .  S
C706        C707   1.405       .  A
C706        C711   1.393       .  A
C706        F713   1.358       .  S
C707        C708   1.405       .  A
C708        C709   1.403       .  A
C708        F715   1.358       .  S
C709        C710   1.420       .  A
C709        F714   1.357       .  S
C710        C711   1.407       .  A
C711        F712   1.347       .  S
C716        C717   1.410       .  A
C716        C721   1.399       .  A
C716        F723   1.350       .  S
C717        C718   1.425       .  A
C718        C719   1.396       .  A
C718        F725   1.357       .  S
C719        C720   1.398       .  A
C719        F724   1.358       .  S
C720        C721   1.401       .  A
C721        F722   1.358       .  S
N726        N727   1.318       .  A
N726        N732   1.316       .  A
N726       Mn755   2.193       .  S
N727        C734   1.350       .  A
N728        N730   1.315       .  A
N728        N729   1.321       .  A
N728       Mn744   2.203       .  S
N729        C735   1.353       .  A
N730        N731   1.320       .  A
N730       Mn755   2.199       .  S
N731        C735   1.352       .  A
N732        N733   1.323       .  A
N732       Mn744   2.210       .  S
N733        C734   1.354       .  A
C734        C845   1.469       .  S
C735        C812   1.475       .  S
N736        N742   1.315       .  A
N736        N737   1.318       .  A
N736       Mn766   2.196       .  S
N737        C745   1.352       .  A
N738        N739   1.320       .  A
N738        N740   1.316       .  A
N738       Mn744   2.196       .  S
N739        C746   1.352       .  A
N740        N741   1.320       .  A
N740       Mn766   2.204       .  S
N741        C746   1.353       .  A
N742        N743   1.321       .  A
N742       Mn744   2.207       .  S
N743        C745   1.356       .  A
Mn744      Cl768   2.557       .  S
C745        C835   1.485       .  S
C746        C865   1.473       .  S
N747        N748   1.319       .  A
N747        N753   1.316       .  A
N747       Mn755   2.195       .  S
N748        C756   1.350       .  A
N749        N751   1.315       .  A
N749        N750   1.320       .  A
N749       Mn767   2.201       .  S
N750        C757   1.353       .  A
N751        N752   1.321       .  A
N751       Mn755   2.202       .  S
N752        C757   1.353       .  A
N753        N754   1.322       .  A
N753       Mn767   2.208       .  S
N754        C756   1.353       .  A
Mn755      Cl768   2.535       .  S
C756        C792   1.467       .  S
C757        C825   1.475       .  S
N758        N759   1.317       .  A
N758        N764   1.315       .  A
N758       Mn766   2.196       .  S
N759        C769   1.352       .  A
N760        N761   1.320       .  A
N760        N762   1.316       .  A
N760       Mn767   2.195       .  S
N761        C770   1.350       .  A
N762        N763   1.321       .  A
N762       Mn766   2.205       .  S
N763        C770   1.352       .  A
N764        N765   1.323       .  A
N764       Mn767   2.209       .  S
N765        C769   1.356       .  A
Mn766      Cl768   2.532       .  S
Mn767      Cl768   2.557       .  S
C769        C852   1.484       .  S
C770        C805   1.467       .  S
C771        C795   1.542       .  S
C771       C1066   1.552       .  S
C772        C802   1.534       .  S
C772        C776   1.553       .  S
C773        C815   1.543       .  S
C773       C1065   1.556       .  S
C774        C832   1.533       .  S
C774        C775   1.548   1_545  S
C775       C1063   1.556       .  S
C776       C1061   1.552   1_545  S
C777        C822   1.543       .  S
C777        C779   1.514       .  S
C777       C1072   1.557       .  S
C777        C789   1.500       .  S
C778        C842   1.537       .  S
C778        C780   1.519       .  S
C778       C1073   1.550       .  S
C778        C784   1.487       .  S
C781        C862   1.540       .  S
C781        C783   1.552   1_545  S
C781        C785   1.489       .  S
C781        C787   1.507       .  S
C782       C1067   1.557   1_545  S
C782        C788   1.553       .  S
C783       C1068   1.550       .  S
C784       C1075   1.305       .  D
C785       C1074   1.305   1_545  D
C786        C788   1.509       .  S
C788        C855   1.539       .  S
C788        C790   1.500       .  S
C789       C1080   1.311       .  D
C790       C1079   1.311   1_545  D
C791        C792   1.399       .  A
C791        C796   1.402       .  A
C791        F798   1.358       .  S
C792        C793   1.395       .  A
C793        C794   1.393       .  A
C793        F800   1.359       .  S
C794        C795   1.417       .  A
C794        F799   1.347       .  S
C795        C796   1.420       .  A
C796        F797   1.355       .  S
C801        C802   1.419       .  A
C801        C806   1.398       .  A
C801        F808   1.356       .  S
C802        C803   1.414       .  A
C803        C804   1.399       .  A
C803        F810   1.356       .  S
C804        C805   1.399       .  A
C804        F809   1.358       .  S
C805        C806   1.397       .  A
C806        F807   1.358       .  S
C811        C812   1.400       .  A
C811        C816   1.398       .  A
C811        F818   1.358       .  S
C812        C813   1.400       .  A
C813        C814   1.399       .  A
C813        F820   1.358       .  S
C814        C815   1.424       .  A
C814        F819   1.357       .  S
C815        C816   1.409       .  A
C816        F817   1.344       .  S
C821        C822   1.424       .  A
C821        C826   1.400       .  A
C821        F828   1.357       .  S
C822        C823   1.410       .  A
C823        C824   1.397       .  A
C823        F830   1.346       .  S
C824        C825   1.400       .  A
C824        F829   1.358       .  S
C825        C826   1.400       .  A
C826        F827   1.358       .  S
C831        C832   1.410       .  A
C831        C836   1.396       .  A
C831        F838   1.352       .  S
C832        C833   1.415       .  A
C833        C834   1.399       .  A
C833        F840   1.355       .  S
C834        C835   1.406       .  A
C834        F839   1.358       .  S
C835        C836   1.407       .  A
C836        F837   1.358       .  S
C841        C842   1.417       .  A
C841        C846   1.393       .  A
C841        F848   1.352       .  S
C842        C843   1.419       .  A
C843        C844   1.402       .  A
C843        F850   1.357       .  S
C844        C845   1.399       .  A
C844        F849   1.358       .  S
C845        C846   1.397       .  A
C846        F847   1.359       .  S
C851        C852   1.405       .  A
C851        C856   1.393       .  A
C851        F858   1.358       .  S
C852        C853   1.405       .  A
C853        C854   1.403       .  A
C853        F860   1.358       .  S
C854        C855   1.420       .  A
C854        F859   1.357       .  S
C855        C856   1.407       .  A
C856        F857   1.347       .  S
C861        C862   1.410       .  A
C861        C866   1.399       .  A
C861        F868   1.350       .  S
C862        C863   1.425       .  A
C863        C864   1.396       .  A
C863        F870   1.357       .  S
C864        C865   1.398       .  A
C864        F869   1.358       .  S
C865        C866   1.401       .  A
C866        F867   1.358       .  S
N871        N872   1.318       .  A
N871        N877   1.316       .  A
N871       Mn900   2.193       .  S
N872        C879   1.350       .  A
N873        N875   1.315       .  A
N873        N874   1.321       .  A
N873       Mn889   2.203       .  S
N874        C880   1.353       .  A
N875        N876   1.320       .  A
N875       Mn900   2.199       .  S
N876        C880   1.352       .  A
N877        N878   1.323       .  A
N877       Mn889   2.210       .  S
N878        C879   1.354       .  A
C879        C990   1.469       .  S
C880        C957   1.475       .  S
N881        N887   1.315       .  A
N881        N882   1.318       .  A
N881       Mn911   2.196       .  S
N882        C890   1.352       .  A
N883        N884   1.320       .  A
N883        N885   1.316       .  A
N883       Mn889   2.196       .  S
N884        C891   1.352       .  A
N885        N886   1.320       .  A
N885       Mn911   2.204       .  S
N886        C891   1.353       .  A
N887        N888   1.321       .  A
N887       Mn889   2.207       .  S
N888        C890   1.356       .  A
Mn889      Cl913   2.557       .  S
C890        C980   1.485       .  S
C891       C1010   1.473       .  S
N892        N893   1.319       .  A
N892        N898   1.316       .  A
N892       Mn900   2.195       .  S
N893        C901   1.350       .  A
N894        N896   1.315       .  A
N894        N895   1.320       .  A
N894       Mn912   2.201       .  S
N895        C902   1.353       .  A
N896        N897   1.321       .  A
N896       Mn900   2.202       .  S
N897        C902   1.353       .  A
N898        N899   1.322       .  A
N898       Mn912   2.208       .  S
N899        C901   1.353       .  A
Mn900      Cl913   2.535       .  S
C901        C937   1.467       .  S
C902        C970   1.475       .  S
N903        N904   1.317       .  A
N903        N909   1.315       .  A
N903       Mn911   2.196       .  S
N904        C914   1.352       .  A
N905        N906   1.320       .  A
N905        N907   1.316       .  A
N905       Mn912   2.195       .  S
N906        C915   1.350       .  A
N907        N908   1.321       .  A
N907       Mn911   2.205       .  S
N908        C915   1.352       .  A
N909        N910   1.323       .  A
N909       Mn912   2.209       .  S
N910        C914   1.356       .  A
Mn911      Cl913   2.532       .  S
Mn912      Cl913   2.557       .  S
C914        C997   1.484       .  S
C915        C950   1.467       .  S
C916        C940   1.542       .  S
C916       C1069   1.517       .  S
C916       C1079   1.491       .  S
C917        C947   1.534       .  S
C917        C921   1.553       .  S
C917       C1076   1.505       .  S
C917       C1080   1.500       .  S
C918        C960   1.543       .  S
C918       C1070   1.514       .  S
C918       C1074   1.491       .  S
C919        C977   1.533       .  S
C919        C920   1.548       .  S
C919       C1075   1.492       .  S
C919       C1077   1.515       .  S
C922        C967   1.543       .  S
C922        C924   1.514       .  S
C922        C934   1.500   1_554  S
C923        C987   1.537       .  S
C923        C925   1.519       .  S
C923        C929   1.487       .  S
C924       C1061   1.517   1_554  S
C925       C1063   1.514   1_554  S
C926       C1007   1.540       .  S
C926        C928   1.552       .  S
C926        C930   1.489       .  S
C926        C932   1.507       .  S
C927        C933   1.553       .  S
C929       C1063   1.491   1_554  S
C930       C1064   1.492   1_554  S
C931       C1062   1.505   1_554  S
C931        C933   1.509       .  S
C932       C1064   1.515   1_554  S
C933       C1000   1.539       .  S
C933        C935   1.500   1_554  S
C934       C1061   1.491       .  S
C935       C1062   1.500       .  S
C936        C937   1.399       .  A
C936        C941   1.402       .  A
C936        F943   1.358       .  S
C937        C938   1.395       .  A
C938        C939   1.393       .  A
C938        F945   1.359       .  S
C939        C940   1.417       .  A
C939        F944   1.347       .  S
C940        C941   1.420       .  A
C941        F942   1.355       .  S
C946        C947   1.419       .  A
C946        C951   1.398       .  A
C946        F953   1.356       .  S
C947        C948   1.414       .  A
C948        C949   1.399       .  A
C948        F955   1.356       .  S
C949        C950   1.399       .  A
C949        F954   1.358       .  S
C950        C951   1.397       .  A
C951        F952   1.358       .  S
C956        C957   1.400       .  A
C956        C961   1.398       .  A
C956        F963   1.358       .  S
C957        C958   1.400       .  A
C958        C959   1.399       .  A
C958        F965   1.358       .  S
C959        C960   1.424       .  A
C959        F964   1.357       .  S
C960        C961   1.409       .  A
C961        F962   1.344       .  S
C966        C967   1.424       .  A
C966        C971   1.400       .  A
C966        F973   1.357       .  S
C967        C968   1.410       .  A
C968        C969   1.397       .  A
C968        F975   1.346       .  S
C969        C970   1.400       .  A
C969        F974   1.358       .  S
C970        C971   1.400       .  A
C971        F972   1.358       .  S
C976        C977   1.410       .  A
C976        C981   1.396       .  A
C976        F983   1.352       .  S
C977        C978   1.415       .  A
C978        C979   1.399       .  A
C978        F985   1.355       .  S
C979        C980   1.406       .  A
C979        F984   1.358       .  S
C980        C981   1.407       .  A
C981        F982   1.358       .  S
C986        C987   1.417       .  A
C986        C991   1.393       .  A
C986        F993   1.352       .  S
C987        C988   1.419       .  A
C988        C989   1.402       .  A
C988        F995   1.357       .  S
C989        C990   1.399       .  A
C989        F994   1.358       .  S
C990        C991   1.397       .  A
C991        F992   1.359       .  S
C996        C997   1.405       .  A
C996       C1001   1.393       .  A
C996       F1003   1.358       .  S
C997        C998   1.405       .  A
C998        C999   1.403       .  A
C998       F1005   1.358       .  S
C999       C1000   1.420       .  A
C999       F1004   1.357       .  S
C1000      C1001   1.407       .  A
C1001      F1002   1.347       .  S
C1006      C1007   1.410       .  A
C1006      C1011   1.399       .  A
C1006      F1013   1.350       .  S
C1007      C1008   1.425       .  A
C1008      C1009   1.396       .  A
C1008      F1015   1.357       .  S
C1009      C1010   1.398       .  A
C1009      F1014   1.358       .  S
C1010      C1011   1.401       .  A
C1011      F1012   1.358       .  S
N1016      N1017   1.318       .  A
N1016      N1022   1.316       .  A
N1016     Mn1045   2.193       .  S
N1017      C1024   1.350       .  A
N1018      N1020   1.315       .  A
N1018      N1019   1.321       .  A
N1018     Mn1034   2.203       .  S
N1019      C1025   1.353       .  A
N1020      N1021   1.320       .  A
N1020     Mn1045   2.199       .  S
N1021      C1025   1.352       .  A
N1022      N1023   1.323       .  A
N1022     Mn1034   2.210       .  S
N1023      C1024   1.354       .  A
C1024      C1135   1.469       .  S
C1025      C1102   1.475       .  S
N1026      N1032   1.315       .  A
N1026      N1027   1.318       .  A
N1026     Mn1056   2.196       .  S
N1027      C1035   1.352       .  A
N1028      N1029   1.320       .  A
N1028      N1030   1.316       .  A
N1028     Mn1034   2.196       .  S
N1029      C1036   1.352       .  A
N1030      N1031   1.320       .  A
N1030     Mn1056   2.204       .  S
N1031      C1036   1.353       .  A
N1032      N1033   1.321       .  A
N1032     Mn1034   2.207       .  S
N1033      C1035   1.356       .  A
Mn1034    Cl1058   2.557       .  S
C1035      C1125   1.485       .  S
C1036      C1155   1.473       .  S
N1037      N1038   1.319       .  A
N1037      N1043   1.316       .  A
N1037     Mn1045   2.195       .  S
N1038      C1046   1.350       .  A
N1039      N1041   1.315       .  A
N1039      N1040   1.320       .  A
N1039     Mn1057   2.201       .  S
N1040      C1047   1.353       .  A
N1041      N1042   1.321       .  A
N1041     Mn1045   2.202       .  S
N1042      C1047   1.353       .  A
N1043      N1044   1.322       .  A
N1043     Mn1057   2.208       .  S
N1044      C1046   1.353       .  A
Mn1045    Cl1058   2.535       .  S
C1046      C1082   1.467       .  S
C1047      C1115   1.475       .  S
N1048      N1049   1.317       .  A
N1048      N1054   1.315       .  A
N1048     Mn1056   2.196       .  S
N1049      C1059   1.352       .  A
N1050      N1051   1.320       .  A
N1050      N1052   1.316       .  A
N1050     Mn1057   2.195       .  S
N1051      C1060   1.350       .  A
N1052      N1053   1.321       .  A
N1052     Mn1056   2.205       .  S
N1053      C1060   1.352       .  A
N1054      N1055   1.323       .  A
N1054     Mn1057   2.209       .  S
N1055      C1059   1.356       .  A
Mn1056    Cl1058   2.532       .  S
Mn1057    Cl1058   2.557       .  S
C1059      C1142   1.484       .  S
C1060      C1095   1.467       .  S
C1061      C1085   1.542       .  S
C1062      C1092   1.534       .  S
C1062      C1066   1.553       .  S
C1063      C1105   1.543       .  S
C1064      C1122   1.533       .  S
C1064      C1065   1.548       .  S
C1067      C1112   1.543       .  S
C1067      C1069   1.514       .  S
C1067      C1079   1.500       .  S
C1068      C1132   1.537       .  S
C1068      C1070   1.519       .  S
C1068      C1074   1.487       .  S
C1071      C1152   1.540       .  S
C1071      C1073   1.552       .  S
C1071      C1075   1.489       .  S
C1071      C1077   1.507       .  S
C1072      C1078   1.553       .  S
C1076      C1078   1.509       .  S
C1078      C1145   1.539       .  S
C1078      C1080   1.500       .  S
C1081      C1082   1.399       .  A
C1081      C1086   1.402       .  A
C1081      F1088   1.358       .  S
C1082      C1083   1.395       .  A
C1083      C1084   1.393       .  A
C1083      F1090   1.359       .  S
C1084      C1085   1.417       .  A
C1084      F1089   1.347       .  S
C1085      C1086   1.420       .  A
C1086      F1087   1.355       .  S
C1091      C1092   1.419       .  A
C1091      C1096   1.398       .  A
C1091      F1098   1.356       .  S
C1092      C1093   1.414       .  A
C1093      C1094   1.399       .  A
C1093      F1100   1.356       .  S
C1094      C1095   1.399       .  A
C1094      F1099   1.358       .  S
C1095      C1096   1.397       .  A
C1096      F1097   1.358       .  S
C1101      C1102   1.400       .  A
C1101      C1106   1.398       .  A
C1101      F1108   1.358       .  S
C1102      C1103   1.400       .  A
C1103      C1104   1.399       .  A
C1103      F1110   1.358       .  S
C1104      C1105   1.424       .  A
C1104      F1109   1.357       .  S
C1105      C1106   1.409       .  A
C1106      F1107   1.344       .  S
C1111      C1112   1.424       .  A
C1111      C1116   1.400       .  A
C1111      F1118   1.357       .  S
C1112      C1113   1.410       .  A
C1113      C1114   1.397       .  A
C1113      F1120   1.346       .  S
C1114      C1115   1.400       .  A
C1114      F1119   1.358       .  S
C1115      C1116   1.400       .  A
C1116      F1117   1.358       .  S
C1121      C1122   1.410       .  A
C1121      C1126   1.396       .  A
C1121      F1128   1.352       .  S
C1122      C1123   1.415       .  A
C1123      C1124   1.399       .  A
C1123      F1130   1.355       .  S
C1124      C1125   1.406       .  A
C1124      F1129   1.358       .  S
C1125      C1126   1.407       .  A
C1126      F1127   1.358       .  S
C1131      C1132   1.417       .  A
C1131      C1136   1.393       .  A
C1131      F1138   1.352       .  S
C1132      C1133   1.419       .  A
C1133      C1134   1.402       .  A
C1133      F1140   1.357       .  S
C1134      C1135   1.399       .  A
C1134      F1139   1.358       .  S
C1135      C1136   1.397       .  A
C1136      F1137   1.359       .  S
C1141      C1142   1.405       .  A
C1141      C1146   1.393       .  A
C1141      F1148   1.358       .  S
C1142      C1143   1.405       .  A
C1143      C1144   1.403       .  A
C1143      F1150   1.358       .  S
C1144      C1145   1.420       .  A
C1144      F1149   1.357       .  S
C1145      C1146   1.407       .  A
C1146      F1147   1.347       .  S
C1151      C1152   1.410       .  A
C1151      C1156   1.399       .  A
C1151      F1158   1.350       .  S
C1152      C1153   1.425       .  A
C1153      C1154   1.396       .  A
C1153      F1160   1.357       .  S
C1154      C1155   1.398       .  A
C1154      F1159   1.358       .  S
C1155      C1156   1.401       .  A
C1156      F1157   1.358       .  S
