geometry optimzed in LAMMPS
_audit_creation_date              2020-12-01 
_audit_creation_method            'lammps2cif' 
_symmetry_space_group_name_H-M    'P1' 
_symmetry_Int_Tables_number       1 
_symmetry_cell_setting            triclinic 
loop_ 
_symmetry_equiv_pos_as_xyz 
  x,y,z 
_cell_length_a                    36.31706583 
_cell_length_b                    39.46544983846266 
_cell_length_c                    39.88643983091096 
_cell_angle_alpha                 91.28817512557252 
_cell_angle_beta                  91.38078816722579 
_cell_angle_gamma                 90.37666311005363 
loop_ 
_atom_site_label 
_atom_site_type_symbol 
_atom_site_fract_x 
_atom_site_fract_y 
_atom_site_fract_z 
_atom_site_charge 
C1          C  0.07323577  0.10081299  0.10069481     0.86300
C2          C  0.09769557  0.07708298  0.12291659    -0.54000
C3          C  0.12446406  0.09361676  0.14203640     0.09200
C4          C  0.12214444  0.13380732  0.13705679     0.20200
C5          C  0.05622923  0.12651427  0.12529394    -0.54700
C6          C  0.08073683  0.14530151  0.14381183     0.09300
C7          C  0.10152563  0.12049174  0.08023664    -0.54200
C8          C  0.12752902  0.13784988  0.09817184     0.09900
H9          H  0.09584752  0.04970242  0.12236317     0.14400
H10         H  0.14186796  0.14887734  0.15297781     0.00100
H11         H  0.02695171  0.13160466  0.12545781     0.14700
H12         H  0.10066119  0.12112870  0.05299939     0.14500
C13         C  0.06953975  0.17949511  0.16210315     0.29800
C14         C  0.07030047  0.24271414  0.19345597     0.29800
C15         C  0.08461312  0.20851170  0.14229446    -0.06400
C16         C  0.02983111  0.19402733  0.17097653    -0.07200
C17         C  0.08882563  0.18223927  0.19592040    -0.07100
C18         C  0.08423537  0.24091374  0.15748619    -0.06400
C19         C  0.03034106  0.22646685  0.18783114    -0.07200
C20         C  0.08921641  0.21426073  0.21159360    -0.07100
C21         C  0.07492680  0.26215777  0.13142602    -0.32500
N22         N  0.07396084  0.24522622  0.10157651     0.14000
C23         C  0.07742623  0.21241322  0.10870251    -0.32500
H24         H  0.07017604  0.19209036  0.09118113     0.16000
C25         C  0.49346471  0.23440565  0.19422418    -0.31400
N26         N  0.47068674  0.20907335  0.18166742     0.12800
C27         C  0.49254096  0.18467631  0.16740513    -0.31400
C28         C  0.08542258  0.20911912  0.24519438    -0.31700
N29         N  0.08404420  0.17600218  0.25086772     0.13300
H30         H  0.07708957  0.22822543  0.26318143     0.15900
C31         C  0.08434283  0.15963713  0.22109385    -0.31700
H32         H  0.07264071  0.13481280  0.21741741     0.15900
H33         H  0.48204145  0.16156165  0.15556849     0.15900
H34         H  0.06284549  0.28689941  0.13439155     0.16000
H35         H  0.48378464  0.25729514  0.20638289     0.15900
C36         C  0.07743999  0.32036272  0.25740391     0.86300
C37         C  0.10422910  0.34244595  0.23681607    -0.54000
C38         C  0.12976757  0.32452211  0.21942028     0.09200
C39         C  0.12483619  0.28488137  0.22406837     0.20200
C40         C  0.05920823  0.29527319  0.23169544    -0.54700
C41         C  0.08289522  0.27585158  0.21388972     0.09300
C42         C  0.10361450  0.29907336  0.27961207    -0.54200
C43         C  0.12881890  0.28048460  0.26335754     0.09900
H44         H  0.10525742  0.36967063  0.23684228     0.14400
H45         H  0.14435443  0.26916041  0.20964348     0.00100
H46         H  0.02966539  0.29154945  0.22988939     0.14700
H47         H  0.10222672  0.29867470  0.30679527     0.14500
C48         C  0.15674038  0.07529715  0.16247796     0.29800
C49         C  0.21862188  0.05995536  0.19965712     0.29800
C50         C  0.15810162  0.08897388  0.19842442    -0.06400
C51         C  0.16369940  0.03432009  0.16916354    -0.07200
C52         C  0.19477976  0.08775582  0.14949472    -0.07100
C53         C  0.18968611  0.08159027  0.21689883    -0.06400
C54         C  0.19584589  0.02818612  0.18916898    -0.07200
C55         C  0.22536334  0.07589514  0.16611490    -0.07100
C56         C  0.18049921  0.08231467  0.25012180    -0.32500
N57         N  0.14516058  0.09155079  0.25306864     0.14000
C58         C  0.13073308  0.09284987  0.22152213    -0.32500
H59         H  0.10180811  0.09066629  0.21563321     0.16000
C60         C  0.19880678  0.49379248  0.19552784    -0.31400
N61         N  0.17067293  0.47607500  0.18061483     0.12800
C62         C  0.14931871  0.00014117  0.16386011    -0.31400
C63         C  0.25628545  0.09050865  0.15322146    -0.31700
N64         N  0.24627745  0.11660582  0.13374748     0.13300
H65         H  0.28401852  0.08225981  0.15820175     0.15900
C66         C  0.20885548  0.11688628  0.13477708    -0.31700
H67         H  0.19361380  0.13918925  0.13036865     0.15900
H68         H  0.12530898  0.49367676  0.14842038     0.15900
H69         H  0.19719016  0.07231175  0.27019629     0.16000
H70         H  0.22047848  0.48155859  0.20941941     0.15900
C71         C  0.31965276  0.13510777  0.06899340     0.86300
C72         C  0.34146803  0.15735949  0.09529774    -0.54000
C73         C  0.31932827  0.17651500  0.11556818     0.09200
C74         C  0.27672285  0.17208942  0.10545469     0.20200
C75         C  0.29330539  0.11479296  0.09100960    -0.54700
C76         C  0.27026355  0.13340414  0.11000691     0.09300
C77         C  0.29586158  0.15937271  0.04842738    -0.54200
C78         C  0.27231796  0.17813230  0.06598485     0.09900
H79         H  0.37048403  0.15434367  0.10110992     0.14400
H80         H  0.25802550  0.18775205  0.12091233     0.00100
H81         H  0.29352855  0.08729471  0.09197540     0.14700
H82         H  0.29594860  0.15974208  0.02121680     0.14500
C83         C  0.09122350  0.12421631  0.32816210     0.86300
C84         C  0.07284955  0.14964611  0.30419002    -0.54000
C85         C  0.09621475  0.16114895  0.28117032     0.09200
C86         C  0.13548050  0.14853462  0.28497485     0.20200
C87         C  0.10834582  0.09719114  0.30389136    -0.54700
C88         C  0.13145018  0.11026574  0.28151408     0.09300
C89         C  0.12391700  0.14381991  0.34489088    -0.54200
C90         C  0.14694380  0.15688887  0.32223281     0.09900
H91         H  0.04407054  0.15619440  0.30296910     0.14400
H92         H  0.15390669  0.15911605  0.26589633     0.00100
H93         H  0.10108391  0.07051935  0.30286371     0.14700
H94         H  0.12771598  0.14763428  0.37174840     0.14500
C95         C  0.33168409  0.21709429  0.21561214     0.29800
C96         C  0.33168273  0.19092060  0.15101727     0.29800
C97         C  0.31261502  0.23772333  0.18896971    -0.06400
C98         C  0.37177230  0.21342369  0.19975298    -0.07200
C99         C  0.31766200  0.18111688  0.21070399    -0.07100
C100        C  0.31291786  0.22456542  0.15622818    -0.06400
C101        C  0.37140422  0.19933680  0.16634248    -0.07200
C102        C  0.31684413  0.16796919  0.17781526    -0.07100
C103        C  0.31757321  0.25178007  0.13599721    -0.32500
N104        N  0.31835908  0.28057410  0.15437009     0.14000
C105        C  0.31655633  0.27226720  0.18657361    -0.32500
H106        H  0.32466502  0.28929389  0.20694189     0.16000
C107        C  0.40808194  0.19653121  0.15685395    -0.31400
N108        N  0.43102323  0.20856010  0.18221939     0.12800
C109        C  0.40927865  0.21907089  0.20822134    -0.31400
C110        C  0.32409232  0.13386780  0.18023384    -0.31700
N111        N  0.32823510  0.12532368  0.21254836     0.13300
H112        H  0.33067451  0.11712543  0.15945747     0.15900
C113        C  0.32751203  0.15442708  0.23058732    -0.31700
H114        H  0.33943300  0.15660147  0.25559790     0.15900
H115        H  0.42002616  0.22928888  0.23187478     0.15900
H116        H  0.32870964  0.25012062  0.11140821     0.16000
H117        H  0.41740323  0.18657718  0.13307466     0.15900
C118        C  0.31166305  0.36552705  0.11294923     0.86300
C119        C  0.27970876  0.37735103  0.13471151    -0.54000
C120        C  0.25623577  0.35240334  0.14226436     0.09200
C121        C  0.26781241  0.31670167  0.12868500     0.20200
C122        C  0.33058250  0.33725155  0.13355629    -0.54700
C123        C  0.30700052  0.31215575  0.14147295     0.09300
C124        C  0.29438882  0.34520883  0.08206760    -0.54200
C125        C  0.27182847  0.31895129  0.09070912     0.09900
H126        H  0.27729200  0.40276990  0.14519242     0.14400
H127        H  0.24973889  0.29532970  0.13579486     0.00100
H128        H  0.35958242  0.33478321  0.13954588     0.14700
H129        H  0.30166566  0.34966386  0.05629508     0.14500
C130        C  0.30268339  0.04678560  0.25912307     0.86300
C131        C  0.27124579  0.03637890  0.23501487    -0.54000
C132        C  0.25310706  0.06255164  0.22161933     0.09200
C133        C  0.26919576  0.09773021  0.23289743     0.20200
C134        C  0.32838372  0.07010701  0.23959377    -0.54700
C135        C  0.31022994  0.09624946  0.22520302     0.09300
C136        C  0.28562702  0.07178902  0.28539977    -0.54200
C137        C  0.26869639  0.09896146  0.27133344     0.09900
H138        H  0.26435825  0.01023804  0.22976889     0.14400
H139        H  0.25501538  0.11972844  0.22157144     0.00100
H140        H  0.35816359  0.06944557  0.24106815     0.14700
H141        H  0.28852268  0.06935479  0.31237615     0.14500
C142        C  0.16216212  0.34125574  0.20000720     0.29800
C143        C  0.22300176  0.35631134  0.16417546     0.29800
C144        C  0.16295685  0.32605366  0.16489007    -0.06400
C145        C  0.16832798  0.38177793  0.19204248    -0.07200
C146        C  0.20030177  0.32977624  0.21486551    -0.07100
C147        C  0.19348843  0.33422534  0.14686313    -0.06400
C148        C  0.20002651  0.38814983  0.17296893    -0.07200
C149        C  0.23070564  0.34109222  0.19858717    -0.07100
C150        C  0.18330725  0.33261539  0.11351990    -0.32500
N151        N  0.14864505  0.32101658  0.11035324     0.14000
C152        C  0.13526075  0.31922358  0.14163511    -0.32500
H153        H  0.10672827  0.31861463  0.14744656     0.16000
C154        C  0.20097896  0.42229753  0.16466688    -0.31400
N155        N  0.17155802  0.43922127  0.17739890     0.12800
C156        C  0.15194856  0.41496341  0.19481467    -0.31400
C157        C  0.26182183  0.32678706  0.21317159    -0.31700
N158        N  0.25174769  0.30156881  0.23373595     0.13300
H159        H  0.28975722  0.33372411  0.20765635     0.15900
C160        C  0.21415963  0.30118609  0.23109823    -0.31700
H161        H  0.19825786  0.27896762  0.23483192     0.15900
H162        H  0.12766846  0.42078707  0.20895306     0.15900
H163        H  0.19898599  0.34267387  0.09341637     0.16000
H164        H  0.22245967  0.43436998  0.15082110     0.15900
C165        C  0.09872065  0.29822006  0.02765604     0.86300
C166        C  0.07329680  0.27441490  0.04760727    -0.54000
C167        C  0.09162154  0.25877384  0.07303807     0.09200
C168        C  0.13275674  0.26684087  0.07512744     0.20200
C169        C  0.11621472  0.32177548  0.05582626    -0.54700
C170        C  0.13356948  0.30497289  0.08045100     0.09300
C171        C  0.12966088  0.27580025  0.01467697    -0.54200
C172        C  0.14767399  0.25947565  0.03927857     0.09900
H173        H  0.04370014  0.27263229  0.04508380     0.14400
H174        H  0.14747043  0.25368249  0.09577469     0.00100
H175        H  0.11354974  0.34908188  0.05738300     0.14700
H176        H  0.13719063  0.27409592  0.98859744     0.14500
C177        C  0.32787368  0.27262947  0.29670976     0.86300
C178        C  0.34390534  0.24748127  0.27145370    -0.54000
C179        C  0.31907276  0.23231561  0.25041022     0.09200
C180        C  0.27745235  0.24231968  0.25997374     0.20200
C181        C  0.30374822  0.29720001  0.27539017    -0.54700
C182        C  0.27657631  0.28177621  0.25588392     0.09300
C183        C  0.29961444  0.25377290  0.31757422    -0.54200
C184        C  0.27296470  0.23753520  0.29972210     0.09900
H185        H  0.37329988  0.24523261  0.26802506     0.14400
H186        H  0.25604697  0.22892543  0.24426998     0.00100
H187        H  0.30699803  0.32453063  0.27612630     0.14700
H188        H  0.29980758  0.25437221  0.34479094     0.14500
C189        C  0.24151702  0.19890467  0.04797779     0.29800
C190        C  0.18116360  0.23766236  0.03512704     0.29800
C191        C  0.24323349  0.23595917  0.06138426    -0.06400
C192        C  0.23246408  0.20473211  0.00829121    -0.07200
C193        C  0.20403076  0.18521800  0.05973530    -0.07100
C194        C  0.21255096  0.25509434  0.05476232    -0.06400
C195        C  0.20079690  0.22498339  0.00244335    -0.07200
C196        C  0.17433594  0.20497661  0.05336357    -0.07100
C197        C  0.22256932  0.28888300  0.05785793    -0.32500
N198        N  0.25820188  0.29182169  0.06810541     0.14000
C199        C  0.27145461  0.25951184  0.06749836    -0.32500
H200        H  0.30022736  0.25365425  0.06675243     0.16000
C201        C  0.19563623  0.22789647  0.46760204    -0.31400
N202        N  0.22275542  0.21128239  0.45071336     0.12800
C203        C  0.24498636  0.19667361  0.47521211    -0.31400
C204        C  0.14354278  0.18879412  0.06496487    -0.31700
N205        N  0.15335317  0.16039672  0.08121602     0.13300
H206        H  0.11587023  0.19605514  0.05899106     0.15900
C207        C  0.18972829  0.15606174  0.07371121    -0.31700
H208        H  0.20446535  0.13259345  0.07556167     0.15900
H209        H  0.26816642  0.18063684  0.46961111     0.15900
H210        H  0.20539539  0.30984020  0.05073639     0.16000
H211        H  0.17314732  0.24078764  0.45523274     0.15900
C212        C  0.24114164  0.21837235  0.31741219     0.29800
C213        C  0.18038276  0.17924095  0.32887351     0.29800
C214        C  0.24158031  0.18165073  0.30405066    -0.06400
C215        C  0.23244348  0.21240800  0.35711344    -0.07200
C216        C  0.20387558  0.23200907  0.30458012    -0.07100
C217        C  0.21181253  0.16203156  0.31104269    -0.06400
C218        C  0.20038580  0.19215936  0.36198435    -0.07200
C219        C  0.17382766  0.21224671  0.31016501    -0.07100
C220        C  0.22080077  0.12870133  0.30445647    -0.32500
N221        N  0.25419341  0.12755572  0.29021795     0.14000
C222        C  0.26755780  0.15990469  0.29118935    -0.32500
H223        H  0.29489882  0.16738539  0.28559767     0.16000
C224        C  0.19534307  0.18902923  0.39650306    -0.31400
N225        N  0.22271852  0.20570032  0.41445987     0.12800
C226        C  0.24517660  0.22029890  0.39083182    -0.31400
C227        C  0.14322130  0.22924718  0.29813960    -0.31700
N228        N  0.15362917  0.25763247  0.28205540     0.13300
H229        H  0.11536247  0.22240027  0.30353527     0.15900
C230        C  0.19023282  0.26142365  0.29055423    -0.31700
H231        H  0.20572385  0.28469178  0.28937162     0.15900
H232        H  0.26865034  0.23630666  0.39740060     0.15900
H233        H  0.20449718  0.10707134  0.31106308     0.16000
H234        H  0.17276832  0.17585304  0.40781433     0.15900
N235        N  0.48922410  0.02894518  0.43427255    -0.06300
N236        N  0.48332264  0.05269971  0.45762152    -0.58500
N237        N  0.02074603  0.47313977  0.37627266    -0.06000
N238        N  0.04808426  0.48166791  0.35713616    -0.60600
N239        N  0.49015824  0.98669976  0.36516017    -0.05600
N240        N  0.49622277  0.00285873  0.33753342    -0.58400
N241        N  0.02006786  0.51317139  0.44171158    -0.05300
N242        N  0.03601657  0.52632016  0.46882764    -0.60900
C243        C  0.01294530  0.05068630  0.97893863     0.95800
C244        C  0.03321010  0.00440056  0.33602497     0.95600
N245        N  0.50791313  0.38669878  0.42660006    -0.06500
N246        N  0.50482627  0.36152537  0.40398234    -0.59000
N247        N  0.03297735  0.44859090  0.48004388    -0.04600
N248        N  0.06420603  0.44275209  0.49613067    -0.60300
N249        N  0.50584829  0.43421829  0.49544142    -0.06500
N250        N  0.51773396  0.42340208  0.52450396    -0.59300
N251        N  0.03218563  0.40874431  0.41630268    -0.04300
N252        N  0.04696919  0.39861821  0.38830129    -0.60400
Mn253      Mn  0.02756655  0.46098493  0.42836795     1.18400
C254        C  0.02947645  0.36952168  0.38017389     0.97900
C255        C  0.05429096  0.42148171  0.02053953     0.98600
N256        N  0.40799427  0.97416653  0.36825214    -0.06600
N257        N  0.40316520  0.97333912  0.33549698    -0.62900
N258        N  0.38244609  0.49755565  0.44426005    -0.05400
N259        N  0.36075817  0.51223802  0.46589017    -0.63500
N260        N  0.40517004  0.01959885  0.43205131    -0.06100
N261        N  0.39987279  0.04999094  0.44522770    -0.63100
N262        N  0.38597001  0.45226135  0.38178472    -0.05000
N263        N  0.36549588  0.93636678  0.35874993    -0.63800
Mn264      Mn  0.44797243  0.00384281  0.39892700     1.10700
C265        C  0.37562634  0.95043227  0.32980033     0.99100
C266        C  0.37179239  0.04482157  0.96600149     0.99200
N267        N  0.42559198  0.42149344  0.49948578    -0.06100
N268        N  0.42880694  0.42594478  0.53222710    -0.61500
N269        N  0.39598189  0.39048580  0.42488330    -0.05400
N270        N  0.37875319  0.37225122  0.40140479    -0.58200
N271        N  0.42541916  0.37477491  0.43578446    -0.06700
N272        N  0.42890853  0.34530883  0.41997294    -0.61000
N273        N  0.39653425  0.43726444  0.48795180    -0.05700
N274        N  0.37957888  0.45292990  0.51247332    -0.58200
Mn275      Mn  0.46690582  0.40255161  0.46538968     1.20200
Mn276      Mn  0.38830247  0.44401505  0.43483552     1.10100
Cl277      Cl  0.45747608  0.45269277  0.43163187    -0.86200
C278        C  0.39949489  0.44523983  0.04034059     0.96200
C279        C  0.39948557  0.34418892  0.39872527     0.96000
C280        C  0.39069340  0.28833209  0.37245499    -0.26500
C281        C  0.39751839  0.32273700  0.36871952    -0.14600
C282        C  0.39346267  0.33716504  0.33680491     0.36000
C283        C  0.37269933  0.31982812  0.31216382    -0.26000
C284        C  0.35832180  0.28775979  0.31865012    -0.15200
C285        C  0.37286219  0.26990917  0.34648875     0.37100
N286        N  0.36714443  0.23399458  0.34929289    -0.89500
H287        H  0.39649949  0.27660625  0.39630110     0.18200
H288        H  0.36720715  0.33187122  0.28847274     0.18200
N289        N  0.40984517  0.36906006  0.32882371    -0.88500
H290        H  0.37882578  0.22538800  0.37171921     0.35600
H291        H  0.38137263  0.22204825  0.32991404     0.40700
H292        H  0.42444415  0.37967824  0.34934527     0.40300
H293        H  0.38849976  0.38538509  0.32227809     0.35200
C294        C  0.10661735  0.34468506  0.98966447    -0.26500
C295        C  0.08240067  0.31911844  0.00008586    -0.14600
C296        C  0.04562022  0.32763824  0.00300998     0.36000
C297        C  0.03768588  0.36035753  0.01309522    -0.26000
C298        C  0.06549572  0.38599923  0.01411138    -0.15200
C299        C  0.09986196  0.37830055  0.99997923     0.37100
N300        N  0.12824448  0.40378176  0.49837572    -0.89500
H301        H  0.13438800  0.33794745  0.98292863     0.18200
H302        H  0.00923144  0.36530240  0.01890952     0.18200
N303        N  0.01682213  0.30316532  0.99677683    -0.88500
H304        H  0.15191664  0.39363807  0.48775143     0.35600
H305        H  0.13550257  0.41111820  0.52302478     0.40700
H306        H  0.00053465  0.31168547  0.97675987     0.40300
H307        H  0.00004245  0.30280717  0.01773617     0.35200
C308        C  0.36065206  0.96717152  0.27301337    -0.26500
C309        C  0.34794434  0.95856408  0.30447502    -0.14600
C310        C  0.31464474  0.97214627  0.31559363     0.36000
C311        C  0.30061968  0.00047231  0.29997983    -0.26000
C312        C  0.31899534  0.01496578  0.27313409    -0.15200
C313        C  0.34559672  0.99469988  0.25643104     0.37100
N314        N  0.35727053  0.00038166  0.22293488    -0.89500
H315        H  0.38481951  0.95489706  0.26307296     0.18200
H316        H  0.27579849  0.01164101  0.30972054     0.18200
N317        N  0.29719395  0.95967015  0.34475252    -0.88500
H318        H  0.37509796  0.02108545  0.22250069     0.35600
H319        H  0.33424453  0.00402979  0.20721617     0.40700
H320        H  0.27017048  0.95270342  0.33795920     0.40300
H321        H  0.29612232  0.97945636  0.36259464     0.35200
C322        C  0.37327914  0.39711479  0.11207485    -0.26500
C323        C  0.33525765  0.39567280  0.10360301    -0.14600
C324        C  0.31989079  0.42322296  0.08555150     0.36000
C325        C  0.34323623  0.44694974  0.07200312    -0.26000
C326        C  0.38112359  0.44123875  0.07228030    -0.15200
C327        C  0.39653962  0.41973847  0.09625681     0.37100
N328        N  0.43584104  0.41840751  0.60145823    -0.89500
H329        H  0.38599570  0.37972255  0.12905634     0.18200
H330        H  0.33132351  0.46595398  0.05586941     0.18200
N331        N  0.28126492  0.42689087  0.07817503    -0.88500
H332        H  0.44286600  0.40026295  0.61924951     0.35600
H333        H  0.44441490  0.44184948  0.61154314     0.40700
H334        H  0.26710408  0.43219703  0.10006212     0.40300
H335        H  0.27068150  0.40508444  0.06615573     0.35200
C336        C  0.02320527  0.06588502  0.33048193    -0.26500
C337        C  0.04723384  0.03962294  0.34002920    -0.14600
C338        C  0.07780236  0.04813793  0.36170953     0.36000
C339        C  0.08482756  0.08219381  0.37037234    -0.26000
C340        C  0.06632963  0.10734068  0.35245805    -0.15200
C341        C  0.03087909  0.09920686  0.34017063     0.37100
N342        N  0.00293480  0.12453541  0.33782440    -0.89500
H343        H  0.99719223  0.06052931  0.31749414     0.18200
H344        H  0.11042829  0.08836965  0.38370920     0.18200
N345        N  0.10301380  0.02298243  0.37335865    -0.88500
H346        H  0.98152539  0.11750101  0.35335220     0.35600
H347        H  0.99229027  0.12424830  0.31321789     0.40700
H348        H  0.10390156  0.02423555  0.39958100     0.40300
H349        H  0.12922626  0.02906651  0.36489938     0.35200
C350        C  0.31247655  0.08959650  0.02632913    -0.26500
C351        C  0.33753223  0.11133912  0.04409208    -0.14600
C352        C  0.37446450  0.11303368  0.03364430     0.36000
C353        C  0.38548110  0.09127081  0.00736580    -0.26000
C354        C  0.36004107  0.06909955  0.99118784    -0.15200
C355        C  0.32332632  0.06859779  0.00047649     0.37100
N356        N  0.29662247  0.04726188  0.98312856    -0.89500
H357        H  0.28340373  0.08953902  0.03192312     0.18200
H358        H  0.41386033  0.09151869  0.99954806     0.18200
N359        N  0.40010494  0.13723376  0.04832906    -0.88500
H360        H  0.27585637  0.56275496  0.97321610     0.35600
H361        H  0.28482466  0.53143709  0.00046380     0.40700
H362        H  0.39114921  0.16130655  0.04157519     0.40300
H363        H  0.42618459  0.13419434  0.03812119     0.35200
C364        C  0.03006116  0.31451980  0.30175276    -0.26500
C365        C  0.04936933  0.33665772  0.28069573    -0.14600
C366        C  0.04805871  0.37163113  0.28830903     0.36000
C367        C  0.03774406  0.38219650  0.32035584    -0.26000
C368        C  0.02722351  0.35864919  0.34445182    -0.15200
C369        C  0.01942361  0.32519156  0.33397402     0.37100
N370        N  0.00389871  0.30168233  0.35677638    -0.89500
H371        H  0.02814636  0.28778586  0.29507664     0.18200
H372        H  0.04007639  0.40894042  0.32690700     0.18200
N373        N  0.05720306  0.39655664  0.26435436    -0.88500
H374        H  0.00084788  0.27773986  0.34523950     0.35600
H375        H  0.97732709  0.30998534  0.36196805     0.40700
H376        H  0.03430806  0.41210878  0.26080678     0.40600
H377        H  0.07868929  0.41161806  0.27452468     0.35200
C378        C  0.04040517  0.05154677  0.07008528    -0.26500
C379        C  0.04435774  0.08642480  0.07578966    -0.14600
C380        C  0.02572932  0.10862027  0.05338169     0.36000
C381        C  0.01109538  0.09606629  0.02268844    -0.26000
C382        C  0.01372918  0.06174118  0.01452438    -0.15200
C383        C  0.02511676  0.03909800  0.03969403     0.37100
N384        N  0.02309461  0.00330071  0.53382725    -0.89500
H385        H  0.05146416  0.03363857  0.08766768     0.18200
H386        H  0.00104173  0.11358930  0.00409921     0.18200
N387        N  0.02485296  0.14439912  0.06019828    -0.88500
H388        H  0.00646469  0.99301654  0.55212228     0.35600
H389        H  0.04963249  0.99372745  0.53737585     0.40700
H390        H  0.99729524  0.15189830  0.06021697     0.40300
H391        H  0.03783885  0.15674282  0.04074736     0.35200
C392        C  0.07323852  0.10082032  0.60068938     0.86300
C393        C  0.09769589  0.07709005  0.62291229    -0.54000
C394        C  0.12446293  0.09362313  0.64203348     0.09200
C395        C  0.12214565  0.13381384  0.63705290     0.20200
C396        C  0.05623097  0.12652253  0.62528637    -0.54700
C397        C  0.08073804  0.14530932  0.64380488     0.09300
C398        C  0.10153009  0.12049799  0.58023191    -0.54200
C399        C  0.12753274  0.13785593  0.59816825     0.09900
H400        H  0.09584786  0.04970953  0.62235875     0.14400
H401        H  0.14186868  0.14888345  0.65297481     0.00100
H402        H  0.02695359  0.13161390  0.62544821     0.14700
H403        H  0.10066714  0.12113475  0.55299463     0.14500
C404        C  0.06954075  0.17950287  0.66209493     0.29800
C405        C  0.07029878  0.24272110  0.69344917     0.29800
C406        C  0.08460955  0.20852066  0.64228513    -0.06400
C407        C  0.02983182  0.19403193  0.67097223    -0.07200
C408        C  0.08883090  0.18224782  0.69590959    -0.07100
C409        C  0.08423025  0.24092242  0.65747739    -0.06400
C410        C  0.03034067  0.22647132  0.68782706    -0.07200
C411        C  0.08921752  0.21426804  0.71158483    -0.07100
C412        C  0.07491943  0.26216607  0.63141699    -0.32500
N413        N  0.07395580  0.24523521  0.60156675     0.14000
C414        C  0.07742180  0.21242208  0.60869313    -0.32500
H415        H  0.07017445  0.19209875  0.59117131     0.16000
C416        C  0.49347162  0.23440807  0.69422513    -0.31400
N417        N  0.47069348  0.20907539  0.68166998     0.12800
C418        C  0.49254693  0.18467804  0.66740717    -0.31400
C419        C  0.08542295  0.20912295  0.74518507    -0.31700
N420        N  0.08405213  0.17600527  0.75085532     0.13300
H421        H  0.07708602  0.22822624  0.76317368     0.15900
C422        C  0.08435530  0.15964258  0.72108076    -0.31700
H423        H  0.07266011  0.13481629  0.71740196     0.15900
H424        H  0.48204696  0.16156282  0.65557203     0.15900
H425        H  0.06284110  0.28690918  0.63438208     0.16000
H426        H  0.48379200  0.25729760  0.70638405     0.15900
C427        C  0.07743985  0.32036182  0.75740719     0.86300
C428        C  0.10423126  0.34244751  0.73682280    -0.54000
C429        C  0.12976970  0.32452459  0.71942441     0.09200
C430        C  0.12483512  0.28488380  0.72406636     0.20200
C431        C  0.05920738  0.29527668  0.73169450    -0.54700
C432        C  0.08289382  0.27585714  0.71388554     0.09300
C433        C  0.10361332  0.29906830  0.77961158    -0.54200
C434        C  0.12881659  0.28048147  0.76335436     0.09900
H435        H  0.10526100  0.36967249  0.73685445     0.14400
H436        H  0.14435348  0.26916407  0.70964030     0.00100
H437        H  0.02966444  0.29155333  0.72988853     0.14700
H438        H  0.10222614  0.29866535  0.80679468     0.14500
C439        C  0.15673546  0.07530135  0.66247716     0.29800
C440        C  0.21861239  0.05995601  0.69965936     0.29800
C441        C  0.15809052  0.08897246  0.69842637    -0.06400
C442        C  0.16369357  0.03432310  0.66915856    -0.07200
C443        C  0.19477647  0.08776230  0.64949889    -0.07100
C444        C  0.18967401  0.08158827  0.71690235    -0.06400
C445        C  0.19583788  0.02818733  0.68916610    -0.07200
C446        C  0.22535759  0.07590001  0.66611985    -0.07100
C447        C  0.18048219  0.08230435  0.75012467    -0.32500
N448        N  0.14514114  0.09153441  0.75307127     0.14000
C449        C  0.13071796  0.09283756  0.72152305    -0.32500
H450        H  0.10179342  0.09064924  0.71563126     0.16000
C451        C  0.19881511  0.49379337  0.69553247    -0.31400
N452        N  0.17068054  0.47607475  0.68062204     0.12800
C453        C  0.14931231  0.00014437  0.66385266    -0.31400
C454        C  0.25628206  0.09051015  0.65322582    -0.31700
N455        N  0.24627756  0.11660728  0.63374994     0.13300
H456        H  0.28401412  0.08225903  0.65820700     0.15900
C457        C  0.20885530  0.11689047  0.63477890    -0.31700
H458        H  0.19361533  0.13919370  0.63036774     0.15900
H459        H  0.12531384  0.49367363  0.64842932     0.15900
H460        H  0.19717286  0.07229986  0.77019867     0.16000
H461        H  0.22048901  0.48156063  0.70942229     0.15900
C462        C  0.31965642  0.13510861  0.56899649     0.86300
C463        C  0.34147340  0.15735799  0.59530091    -0.54000
C464        C  0.31933506  0.17651375  0.61557194     0.09200
C465        C  0.27672881  0.17209066  0.60545924     0.20200
C466        C  0.29330779  0.11479372  0.59101240    -0.54700
C467        C  0.27026673  0.13340523  0.61001062     0.09300
C468        C  0.29586639  0.15937542  0.54843158    -0.54200
C469        C  0.27232400  0.17813573  0.56598962     0.09900
H470        H  0.37048944  0.15434065  0.60111241     0.14400
H471        H  0.25803286  0.18775394  0.62091765     0.00100
H472        H  0.29352924  0.08729538  0.59197694     0.14700
H473        H  0.29595353  0.15974590  0.52122106     0.14500
C474        C  0.09120412  0.12422832  0.82815679     0.86300
C475        C  0.07284171  0.14965922  0.80417942    -0.54000
C476        C  0.09621336  0.16114990  0.78115933     0.09200
C477        C  0.13547456  0.14852555  0.78496933     0.20200
C478        C  0.10832068  0.09719311  0.80389207    -0.54700
C479        C  0.13143233  0.11025716  0.78151378     0.09300
C480        C  0.12390195  0.14382567  0.84488508    -0.54200
C481        C  0.14693554  0.15688406  0.82222710     0.09900
H482        H  0.04406531  0.15621761  0.80295749     0.14400
H483        H  0.15390611  0.15909929  0.76589093     0.00100
H484        H  0.10105064  0.07052327  0.80286903     0.14700
H485        H  0.12769684  0.14764712  0.87174212     0.14500
C486        C  0.33169053  0.21709111  0.71561574     0.29800
C487        C  0.33169111  0.19091808  0.65102053     0.29800
C488        C  0.31262213  0.23772041  0.68897265    -0.06400
C489        C  0.37177931  0.21342160  0.69975707    -0.07200
C490        C  0.31766859  0.18111360  0.71070642    -0.07100
C491        C  0.31292634  0.22456280  0.65623112    -0.06400
C492        C  0.37141201  0.19933511  0.66634628    -0.07200
C493        C  0.31685231  0.16796622  0.67781801    -0.07100
C494        C  0.31758132  0.25177747  0.63599988    -0.32500
N495        N  0.31836535  0.28057154  0.65437277     0.14000
C496        C  0.31656234  0.27226441  0.68657638    -0.32500
H497        H  0.32466964  0.28929124  0.70694489     0.16000
C498        C  0.40808950  0.19653266  0.65685697    -0.31400
N499        N  0.43103019  0.20856245  0.68222226     0.12800
C500        C  0.40928543  0.21907185  0.70822470    -0.31400
C501        C  0.32409508  0.13386367  0.68023675    -0.31700
N502        N  0.32823103  0.12531880  0.71255183     0.13300
H503        H  0.33067490  0.11711984  0.65946076     0.15900
C504        C  0.32751152  0.15442249  0.73059078    -0.31700
H505        H  0.33942892  0.15659516  0.75560275     0.15900
H506        H  0.42003248  0.22929101  0.73187788     0.15900
H507        H  0.32871734  0.25011811  0.61141060     0.16000
H508        H  0.41741114  0.18657990  0.63307728     0.15900
C509        C  0.31167103  0.36552857  0.61295832     0.86300
C510        C  0.27971724  0.37735037  0.63472181    -0.54000
C511        C  0.25624312  0.35240263  0.64227103     0.09200
C512        C  0.26781948  0.31670180  0.62868825     0.20200
C513        C  0.33059012  0.33725039  0.63356212    -0.54700
C514        C  0.30700769  0.31215373  0.64147571     0.09300
C515        C  0.29439671  0.34521418  0.58207426    -0.54200
C516        C  0.27183642  0.31895546  0.59071282     0.09900
H517        H  0.27730180  0.40276748  0.64520713     0.14400
H518        H  0.24974533  0.29532933  0.63579559     0.00100
H519        H  0.35958973  0.33478195  0.63955304     0.14700
H520        H  0.30167362  0.34967252  0.55630234     0.14500
C521        C  0.30267246  0.04678036  0.75912417     0.86300
C522        C  0.27123440  0.03637554  0.73501603    -0.54000
C523        C  0.25309697  0.06254967  0.72162159     0.09200
C524        C  0.26918817  0.09772720  0.73289941     0.20200
C525        C  0.32837424  0.07010143  0.73959589    -0.54700
C526        C  0.31022266  0.09624508  0.72520526     0.09300
C527        C  0.28561683  0.07178323  0.78540124    -0.54200
C528        C  0.26868812  0.09895656  0.77133492     0.09900
H529        H  0.26434536  0.01023509  0.72976988     0.14400
H530        H  0.25500885  0.11972641  0.72157417     0.00100
H531        H  0.35815406  0.06943875  0.74107154     0.14700
H532        H  0.28851095  0.06934791  0.81237760     0.14500
C533        C  0.16216753  0.34125660  0.70001325     0.29800
C534        C  0.22300884  0.35631089  0.66418217     0.29800
C535        C  0.16296349  0.32605440  0.66489618    -0.06400
C536        C  0.16833520  0.38177826  0.69204923    -0.07200
C537        C  0.20030707  0.32977583  0.71487187    -0.07100
C538        C  0.19349522  0.33422602  0.64686948    -0.06400
C539        C  0.20003419  0.38814971  0.67297602    -0.07200
C540        C  0.23071178  0.34109145  0.69859381    -0.07100
C541        C  0.18331420  0.33261600  0.61352631    -0.32500
N542        N  0.14865287  0.32101512  0.61035978     0.14000
C543        C  0.13526836  0.31922089  0.64164149    -0.32500
H544        H  0.10673632  0.31860636  0.64745351     0.16000
C545        C  0.20098733  0.42229751  0.66467468    -0.31400
N546        N  0.17156652  0.43922120  0.67740698     0.12800
C547        C  0.15195641  0.41496363  0.69482220    -0.31400
C548        C  0.26182762  0.32678479  0.71317721    -0.31700
N549        N  0.25175265  0.30156551  0.73373986     0.13300
H550        H  0.28976319  0.33372137  0.70766199     0.15900
C551        C  0.21416444  0.30118352  0.73110125    -0.31700
H552        H  0.19826215  0.27896401  0.73482964     0.15900
H553        H  0.12767639  0.42078740  0.70896065     0.15900
H554        H  0.19899265  0.34267446  0.59342259     0.16000
H555        H  0.22246805  0.43436995  0.65082892     0.15900
C556        C  0.09873758  0.29823446  0.52765490     0.86300
C557        C  0.07330523  0.27443086  0.54760005    -0.54000
C558        C  0.09162310  0.25878319  0.57303133     0.09200
C559        C  0.13275947  0.26684496  0.57512737     0.20200
C560        C  0.11622944  0.32178430  0.55583028    -0.54700
C561        C  0.13357649  0.30497639  0.58045566     0.09300
C562        C  0.12967633  0.27581209  0.51467817    -0.54200
C563        C  0.14768254  0.25948255  0.53928001     0.09900
H564        H  0.04370848  0.27265441  0.54507388     0.14400
H565        H  0.14746791  0.25368272  0.59577509     0.00100
H566        H  0.11356891  0.34909134  0.55738827     0.14700
H567        H  0.13721211  0.27411148  0.48860002     0.14500
C568        C  0.32787385  0.27262124  0.79671710     0.86300
C569        C  0.34390772  0.24747386  0.77146119    -0.54000
C570        C  0.31907661  0.23231076  0.75041401     0.09200
C571        C  0.27745503  0.24231462  0.75997496     0.20200
C572        C  0.30375118  0.29719334  0.77539636    -0.54700
C573        C  0.27658040  0.28177122  0.75588724     0.09300
C574        C  0.29961134  0.25376397  0.81757770    -0.54200
C575        C  0.27296226  0.23752836  0.79972265     0.09900
H576        H  0.37330271  0.24522401  0.76803547     0.14400
H577        H  0.25605088  0.22892179  0.74426857     0.00100
H578        H  0.30700194  0.32452388  0.77613431     0.14700
H579        H  0.29980100  0.25436216  0.84479432     0.14500
C580        C  0.24152466  0.19891062  0.54798238     0.29800
C581        C  0.18117263  0.23766957  0.53512973     0.29800
C582        C  0.24324081  0.23596459  0.56139076    -0.06400
C583        C  0.23247486  0.20474019  0.50829552    -0.07200
C584        C  0.20403721  0.18522392  0.55973663    -0.07100
C585        C  0.21255853  0.25510047  0.55476803    -0.06400
C586        C  0.20080862  0.22499236  0.50244653    -0.07200
C587        C  0.17434306  0.20498295  0.55336373    -0.07100
C588        C  0.22257867  0.28888898  0.55786022    -0.32500
N589        N  0.25821143  0.29182739  0.56810675     0.14000
C590        C  0.27146284  0.25951709  0.56750181    -0.32500
H591        H  0.30023546  0.25365893  0.56675460     0.16000
C592        C  0.19562279  0.22788761  0.96759925    -0.31400
N593        N  0.22274196  0.21127463  0.95070970     0.12800
C594        C  0.24497455  0.19666621  0.97520737    -0.31400
C595        C  0.14354880  0.18880068  0.56496311    -0.31700
N596        N  0.15335789  0.16040269  0.58121380     0.13300
H597        H  0.11587665  0.19606292  0.55898941     0.15900
C598        C  0.18973354  0.15606763  0.57371121    -0.31700
H599        H  0.20447050  0.13259941  0.57556287     0.15900
H600        H  0.26815561  0.18063100  0.96960541     0.15900
H601        H  0.20540557  0.30984644  0.55073742     0.16000
H602        H  0.17313361  0.24077918  0.95523082     0.15900
C603        C  0.24113536  0.21836684  0.81741005     0.29800
C604        C  0.18037429  0.17923620  0.82886830     0.29800
C605        C  0.24157465  0.18164456  0.80405147    -0.06400
C606        C  0.23243261  0.21240465  0.85711060    -0.07200
C607        C  0.20387069  0.23200205  0.80457317    -0.07100
C608        C  0.21180560  0.16202600  0.81104179    -0.06400
C609        C  0.20037385  0.19215683  0.86197984    -0.07200
C610        C  0.17382181  0.21223997  0.81015658    -0.07100
C611        C  0.22079191  0.12869599  0.80445479    -0.32500
N612        N  0.25418577  0.12755007  0.79021921     0.14000
C613        C  0.26755161  0.15989834  0.79119100    -0.32500
H614        H  0.29489263  0.16737844  0.78559904     0.16000
C615        C  0.19532967  0.18902562  0.89649808    -0.31400
N616        N  0.22270516  0.20569521  0.91445604     0.12800
C617        C  0.24516474  0.22029402  0.89082942    -0.31400
C618        C  0.14321632  0.22924170  0.79813224    -0.31700
N619        N  0.15362572  0.25762679  0.78204897     0.13300
H620        H  0.11535713  0.22239708  0.80352959     0.15900
C621        C  0.19022876  0.26141749  0.79054931    -0.31700
H622        H  0.20571903  0.28468638  0.78937096     0.15900
H623        H  0.26863957  0.23629987  0.89739957     0.15900
H624        H  0.20448627  0.10706647  0.81105861     0.16000
H625        H  0.17275495  0.17584847  0.90780835     0.15900
N626        N  0.48922651  0.02893411  0.93428063    -0.06300
N627        N  0.48332456  0.05268868  0.95762936    -0.58500
N628        N  0.02076715  0.47312287  0.87628453    -0.06000
N629        N  0.04810660  0.48164718  0.85714767    -0.60600
N630        N  0.49016092  0.98669075  0.86516705    -0.05600
N631        N  0.49622424  0.00284801  0.83753908    -0.58400
N632        N  0.02009159  0.51315522  0.94172073    -0.05300
N633        N  0.03604071  0.52630694  0.96883510    -0.60900
C634        C  0.01297108  0.05068144  0.47893693     0.95800
C635        C  0.03318833  0.00442764  0.83602141     0.95600
N636        N  0.50790755  0.38670956  0.92659475    -0.06500
N637        N  0.50481425  0.36153948  0.90397371    -0.59000
N638        N  0.03297726  0.44857281  0.98006111    -0.04600
N639        N  0.06420073  0.44273387  0.99615661    -0.60300
N640        N  0.50584793  0.43423103  0.99543749    -0.06500
N641        N  0.51773591  0.42341068  0.02449761    -0.59300
N642        N  0.03218750  0.40872521  0.91631692    -0.04300
N643        N  0.04696932  0.39859841  0.88831474    -0.60400
Mn644      Mn  0.02757945  0.46096702  0.92838212     1.18400
C645        C  0.02946888  0.36950677  0.88018360     0.97900
C646        C  0.05430426  0.42150034  0.52051628     0.98600
N647        N  0.40799678  0.97416150  0.86825519    -0.06600
N648        N  0.40316594  0.97333913  0.83550008    -0.62900
N649        N  0.38244345  0.49756222  0.94425725    -0.05400
N650        N  0.36075813  0.51224446  0.96588939    -0.63500
N651        N  0.40517156  0.01958898  0.93205715    -0.06100
N652        N  0.39987294  0.04998116  0.94523274    -0.63100
N653        N  0.38596555  0.45226417  0.88178458    -0.05000
N654        N  0.36549653  0.93636443  0.85874967    -0.63800
Mn655      Mn  0.44797511  0.00383389  0.89893328     1.10700
C656        C  0.37562671  0.95043306  0.82980149     0.99100
C657        C  0.37179400  0.04483098  0.46599833     0.99200
N658        N  0.42559224  0.42150527  0.99948762    -0.06100
N659        N  0.42880570  0.42595571  0.03222941    -0.61500
N660        N  0.39597769  0.39049263  0.92488800    -0.05400
N661        N  0.37874482  0.37225444  0.90141471    -0.58200
N662        N  0.42541591  0.37478299  0.93578842    -0.06700
N663        N  0.42890196  0.34531397  0.91998170    -0.61000
N664        N  0.39653447  0.43727585  0.98795316    -0.05700
N665        N  0.37957826  0.45294084  0.01247434    -0.58200
Mn666      Mn  0.46690436  0.40256254  0.96538890     1.20200
Mn667      Mn  0.38829961  0.44402217  0.93483618     1.10100
Cl668      Cl  0.45747264  0.45270132  0.93162920    -0.86200
C669        C  0.39949724  0.44522963  0.54033880     0.96200
C670        C  0.39947558  0.34419080  0.89873792     0.96000
C671        C  0.39067528  0.28833131  0.87247403    -0.26500
C672        C  0.39750505  0.32273496  0.86873488    -0.14600
C673        C  0.39345882  0.33715849  0.83681730     0.36000
C674        C  0.37270021  0.31981915  0.81217423    -0.26000
C675        C  0.35831917  0.28775216  0.81866143    -0.15200
C676        C  0.37285176  0.26990512  0.84650559     0.37100
N677        N  0.36713621  0.23399047  0.84931121    -0.89500
H678        H  0.39647489  0.27660846  0.89632283     0.18200
H679        H  0.36721488  0.33185891  0.78848018     0.18200
N680        N  0.40984904  0.36904979  0.82883434    -0.88500
H681        H  0.37881236  0.22538657  0.87174074     0.35600
H682        H  0.38137098  0.22204399  0.82993649     0.40700
H683        H  0.42444617  0.37966845  0.84935647     0.40300
H684        H  0.38850813  0.38537810  0.82228326     0.35200
C685        C  0.10665566  0.34470720  0.48967405    -0.26500
C686        C  0.08243220  0.31914010  0.50008394    -0.14600
C687        C  0.04564789  0.32765555  0.50298570     0.36000
C688        C  0.03770180  0.36037814  0.51305013    -0.26000
C689        C  0.06551153  0.38601995  0.51408660    -0.15200
C690        C  0.09988995  0.37832301  0.49998008     0.37100
N691        N  0.12821659  0.40375710  0.99835673    -0.89500
H692        H  0.13443289  0.33797102  0.48295800     0.18200
H693        H  0.00924093  0.36532312  0.51884001     0.18200
N694        N  0.01685666  0.30317574  0.49675281    -0.88500
H695        H  0.15187766  0.39361306  0.98771239     0.35600
H696        H  0.13549767  0.41108966  0.02300167     0.40700
H697        H  0.00057776  0.31168290  0.47672454     0.40300
H698        H  0.00006608  0.30282681  0.51770527     0.35200
C699        C  0.36065071  0.96717341  0.77301394    -0.26500
C700        C  0.34794486  0.95856475  0.80447588    -0.14600
C701        C  0.31464214  0.97214089  0.81559373     0.36000
C702        C  0.30061264  0.00046583  0.79998082    -0.26000
C703        C  0.31898496  0.01496046  0.77313383    -0.15200
C704        C  0.34558739  0.99469692  0.75642969     0.37100
N705        N  0.35725253  0.00037506  0.72293010    -0.89500
H706        H  0.38481977  0.95490217  0.76307306     0.18200
H707        H  0.27579055  0.01163217  0.80972227     0.18200
N708        N  0.29719076  0.95965793  0.84474934    -0.88500
H709        H  0.37507668  0.02108054  0.72248867     0.35600
H710        H  0.33422222  0.00401808  0.70721503     0.40700
H711        H  0.27016979  0.95268569  0.83795207     0.40300
H712        H  0.29611163  0.97944177  0.86259316     0.35200
C713        C  0.37328807  0.39711268  0.61208032    -0.26500
C714        C  0.33526531  0.39567508  0.60361472    -0.14600
C715        C  0.31989816  0.42322742  0.58556667     0.36000
C716        C  0.34324405  0.44694803  0.57200916    -0.26000
C717        C  0.38113037  0.44123212  0.57228077    -0.15200
C718        C  0.39654831  0.41973185  0.59625656     0.37100
N719        N  0.43583151  0.41842110  0.10146701    -0.89500
H720        H  0.38600555  0.37971899  0.62905977     0.18200
H721        H  0.33133084  0.46595230  0.55587576     0.18200
N722        N  0.28127050  0.42690401  0.57820415    -0.88500
H723        H  0.44285524  0.40027838  0.11926043     0.35600
H724        H  0.44439803  0.44186481  0.11155333     0.40700
H725        H  0.26712289  0.43222114  0.60009630     0.40300
H726        H  0.27067413  0.40509694  0.56619573     0.35200
C727        C  0.02318554  0.06590935  0.83046887    -0.26500
C728        C  0.04720953  0.03964992  0.84003130    -0.14600
C729        C  0.07776509  0.04816907  0.86172684     0.36000
C730        C  0.08478703  0.08222689  0.87038350    -0.26000
C731        C  0.06629929  0.10736879  0.85245440    -0.15200
C732        C  0.03085327  0.09923218  0.84015745     0.37100
N733        N  0.00290878  0.12455926  0.83779905    -0.89500
H734        H  0.99717950  0.06055043  0.81747022     0.18200
H735        H  0.11037962  0.08840606  0.88373231     0.18200
N736        N  0.10296641  0.02301625  0.87339976    -0.88500
H737        H  0.98149238  0.11752474  0.85331933     0.35600
H738        H  0.99227547  0.12427021  0.81318887     0.40700
H739        H  0.10383504  0.02427832  0.89962205     0.40300
H740        H  0.12918605  0.02909601  0.86495472     0.35200
C741        C  0.31248044  0.08959944  0.52633106    -0.26500
C742        C  0.33753602  0.11134194  0.54409383    -0.14600
C743        C  0.37446710  0.11304057  0.53364273     0.36000
C744        C  0.38548315  0.09128008  0.50736224    -0.26000
C745        C  0.36004342  0.06910801  0.49118530    -0.15200
C746        C  0.32332961  0.06860301  0.50047672     0.37100
N747        N  0.29662614  0.04726528  0.48313054    -0.89500
H748        H  0.28340803  0.08954008  0.53192653     0.18200
H749        H  0.41386158  0.09153033  0.49954229     0.18200
N750        N  0.40010668  0.13724232  0.54832609    -0.88500
H751        H  0.27585636  0.56275448  0.47321295     0.35600
H752        H  0.28481990  0.53143578  0.50046081     0.40700
H753        H  0.39114803  0.16131463  0.54157346     0.40300
H754        H  0.42618559  0.13420522  0.53811627     0.35200
C755        C  0.03006518  0.31451003  0.80175987    -0.26500
C756        C  0.04936931  0.33665213  0.78070358    -0.14600
C757        C  0.04805277  0.37162489  0.78831912     0.36000
C758        C  0.03773175  0.38218742  0.82036554    -0.26000
C759        C  0.02721548  0.35863721  0.84446049    -0.15200
C760        C  0.01942659  0.32517785  0.83398220     0.37100
N761        N  0.00391494  0.30166285  0.85678636    -0.89500
H762        H  0.02815594  0.28777607  0.79508255     0.18200
H763        H  0.04005819  0.40893133  0.82691844     0.18200
N764        N  0.05719881  0.39655253  0.76436720    -0.88500
H765        H  0.00087542  0.27771869  0.84525084     0.35600
H766        H  0.97733972  0.30995491  0.86197974     0.40700
H767        H  0.03430275  0.41210282  0.76081716     0.40600
H768        H  0.07868192  0.41161526  0.77454144     0.35200
C769        C  0.04040513  0.05155249  0.57008751    -0.26500
C770        C  0.04436168  0.08643110  0.57578532    -0.14600
C771        C  0.02573817  0.10862458  0.55337247     0.36000
C772        C  0.01111171  0.09606721  0.52267827    -0.26000
C773        C  0.01374696  0.06174102  0.51452008    -0.15200
C774        C  0.02512315  0.03910019  0.53969561     0.37100
N775        N  0.02309429  0.00329941  0.03381961    -0.89500
H776        H  0.05145584  0.03364623  0.58767595     0.18200
H777        H  0.00106327  0.11358786  0.50408457     0.18200
N778        N  0.02486021  0.14440405  0.56018547    -0.88500
H779        H  0.00647262  0.99300871  0.05211698     0.35600
H780        H  0.04963560  0.99373091  0.03736003     0.40700
H781        H  0.99730228  0.15190279  0.56019957     0.40300
H782        H  0.03784907  0.15674609  0.54073511     0.35200
C783        C  0.07326632  0.60081417  0.10069381     0.86300
C784        C  0.09772863  0.57708950  0.12291610    -0.54000
C785        C  0.12449509  0.59362584  0.14203199     0.09200
C786        C  0.12217112  0.63381741  0.13704944     0.20200
C787        C  0.05625564  0.62651456  0.12528910    -0.54700
C788        C  0.08076095  0.64530639  0.14380311     0.09300
C789        C  0.10155160  0.62049495  0.08023124    -0.54200
C790        C  0.12755146  0.63786078  0.09816308     0.09900
H791        H  0.09588520  0.54970899  0.12236681     0.14400
H792        H  0.14189379  0.64889069  0.15296876     0.00100
H793        H  0.02697720  0.63160038  0.12545355     0.14700
H794        H  0.10068566  0.62112835  0.05299387     0.14500
C795        C  0.06955692  0.67949659  0.16209270     0.29800
C796        C  0.07030853  0.74271056  0.19345160     0.29800
C797        C  0.08463916  0.70851318  0.14229165    -0.06400
C798        C  0.02984444  0.69403009  0.17095552    -0.07200
C799        C  0.08883426  0.68223642  0.19591226    -0.07100
C800        C  0.08425622  0.74091378  0.15748564    -0.06400
C801        C  0.03035099  0.72646831  0.18781247    -0.07200
C802        C  0.08921316  0.71425247  0.21159313    -0.07100
C803        C  0.07495402  0.76215885  0.13142447    -0.32500
N804        N  0.07399648  0.74522818  0.10157475     0.14000
C805        C  0.07746290  0.71241550  0.10869876    -0.32500
H806        H  0.07020969  0.69209348  0.09117719     0.16000
C807        C  0.49348165  0.73441221  0.19419637    -0.31400
N808        N  0.47070407  0.70908406  0.18163170     0.12800
C809        C  0.49255861  0.68468426  0.16737414    -0.31400
C810        C  0.08541538  0.70909763  0.24519230    -0.31700
N811        N  0.08406557  0.67597606  0.25085538     0.13300
H812        H  0.07708047  0.72819557  0.26318780     0.15900
C813        C  0.08436872  0.65962234  0.22107619    -0.31700
H814        H  0.07269249  0.63478948  0.21739137     0.15900
H815        H  0.48205855  0.66157102  0.15553518     0.15900
H816        H  0.06286371  0.78689678  0.13438848     0.16000
H817        H  0.48380178  0.75730163  0.20635553     0.15900
C818        C  0.07745518  0.82033743  0.25741872     0.86300
C819        C  0.10424946  0.84242699  0.23684102    -0.54000
C820        C  0.12978120  0.82450856  0.21943106     0.09200
C821        C  0.12484603  0.78486655  0.22406489     0.20200
C822        C  0.05921886  0.79526164  0.23170007    -0.54700
C823        C  0.08290373  0.77584359  0.21388785     0.09300
C824        C  0.10362594  0.79903284  0.27961571    -0.54200
C825        C  0.12882983  0.78045188  0.26335086     0.09900
H826        H  0.10528824  0.86965186  0.23688691     0.14400
H827        H  0.14436274  0.76914999  0.20963342     0.00100
H828        H  0.02967544  0.79154033  0.22989466     0.14700
H829        H  0.10223798  0.79861988  0.30679830     0.14500
C830        C  0.15676969  0.57530081  0.16246970     0.29800
C831        C  0.21865242  0.55994744  0.19964190     0.29800
C832        C  0.15813143  0.58896795  0.19841901    -0.06400
C833        C  0.16372562  0.53432200  0.16914687    -0.07200
C834        C  0.19480649  0.58775874  0.14948662    -0.07100
C835        C  0.18971723  0.58157929  0.21689193    -0.06400
C836        C  0.19587325  0.52818163  0.18914881    -0.07200
C837        C  0.22539082  0.57589582  0.16610184    -0.07100
C838        C  0.18052076  0.58227467  0.25011361    -0.32500
N839        N  0.14517578  0.59149369  0.25306309     0.14000
C840        C  0.13075708  0.59281522  0.22151542    -0.32500
H841        H  0.10183325  0.59062469  0.21562082     0.16000
C842        C  0.19878473  0.99379781  0.19555152    -0.31400
N843        N  0.17065564  0.97607442  0.18063834     0.12800
C844        C  0.14933860  0.50014605  0.16384073    -0.31400
C845        C  0.25631073  0.59050631  0.15319874    -0.31700
N846        N  0.24629905  0.61660194  0.13372263     0.13300
H847        H  0.28404420  0.58225526  0.15817213     0.15900
C848        C  0.20887787  0.61688377  0.13475884    -0.31700
H849        H  0.19363403  0.63918433  0.13034752     0.15900
H850        H  0.12529188  0.99366711  0.14843797     0.15900
H851        H  0.19721181  0.57226056  0.27018284     0.16000
H852        H  0.22045755  0.98156751  0.20944453     0.15900
C853        C  0.31966246  0.63511520  0.06895914     0.86300
C854        C  0.34148020  0.65736193  0.09526577    -0.54000
C855        C  0.31934274  0.67651416  0.11554165     0.09200
C856        C  0.27673645  0.67209024  0.10543051     0.20200
C857        C  0.29331822  0.61479526  0.09097476    -0.54700
C858        C  0.27027916  0.63340332  0.10997853     0.09300
C859        C  0.29586801  0.65938198  0.04839964    -0.54200
C860        C  0.27232787  0.67814093  0.06596141     0.09900
H861        H  0.37049781  0.65434419  0.10107195     0.14400
H862        H  0.25804023  0.68775006  0.12089204     0.00100
H863        H  0.29354427  0.58729702  0.09193859     0.14700
H864        H  0.29595279  0.65975501  0.02118932     0.14500
C865        C  0.09126008  0.62420038  0.32815917     0.86300
C866        C  0.07288575  0.64962688  0.30418445    -0.54000
C867        C  0.09624419  0.66111340  0.28115186     0.09200
C868        C  0.13550865  0.64848862  0.28494829     0.20200
C869        C  0.10836476  0.59715899  0.30389227    -0.54700
C870        C  0.13146766  0.61022007  0.28150295     0.09300
C871        C  0.12396463  0.64379695  0.34486941    -0.54200
C872        C  0.14698672  0.65684879  0.32220077     0.09900
H873        H  0.04410944  0.65618663  0.30297507     0.14400
H874        H  0.15393243  0.65905951  0.26586214     0.00100
H875        H  0.10109791  0.57048844  0.30287934     0.14700
H876        H  0.12777158  0.64762255  0.37172437     0.14500
C877        C  0.33170953  0.71708092  0.21559269     0.29800
C878        C  0.33170009  0.69091446  0.15099256     0.29800
C879        C  0.31262677  0.73770609  0.18895540    -0.06400
C880        C  0.37179331  0.71342419  0.19972422    -0.07200
C881        C  0.31769862  0.68109783  0.21068169    -0.07100
C882        C  0.31292100  0.72454995  0.15621318    -0.06400
C883        C  0.37142206  0.69934181  0.16631160    -0.07200
C884        C  0.31687635  0.66795537  0.17779022    -0.07100
C885        C  0.31754792  0.75176567  0.13597985    -0.32500
N886        N  0.31833106  0.78055834  0.15435390     0.14000
C887        C  0.31655277  0.77225124  0.18655862    -0.32500
H888        H  0.32466525  0.78928083  0.20692314     0.16000
C889        C  0.40809885  0.69654335  0.15681839    -0.31400
N890        N  0.43104107  0.70857211  0.18218321     0.12800
C891        C  0.40929890  0.71907651  0.20818885    -0.31400
C892        C  0.32412914  0.63385451  0.18019949    -0.31700
N893        N  0.32827707  0.62530348  0.21251143     0.13300
H894        H  0.33070489  0.61711629  0.15941788     0.15900
C895        C  0.32755610  0.65440364  0.23055735    -0.31700
H896        H  0.33947421  0.65657144  0.25556925     0.15900
H897        H  0.42004797  0.72929066  0.23184332     0.15900
H898        H  0.32866937  0.75010984  0.11138575     0.16000
H899        H  0.41741887  0.68659109  0.13303793     0.15900
C900        C  0.31166894  0.86552313  0.11295478     0.86300
C901        C  0.27971740  0.87735100  0.13471902    -0.54000
C902        C  0.25623461  0.85240852  0.14226249     0.09200
C903        C  0.26779984  0.81670663  0.12867338     0.20200
C904        C  0.33057733  0.83723592  0.13355309    -0.54700
C905        C  0.30698530  0.81214531  0.14146161     0.09300
C906        C  0.29439138  0.84521896  0.08206656    -0.54200
C907        C  0.27182124  0.81896597  0.09069910     0.09900
H908        H  0.27730833  0.90276800  0.14520746     0.14400
H909        H  0.24971871  0.79533720  0.13577568     0.00100
H910        H  0.35957651  0.83475659  0.13954080     0.14700
H911        H  0.30167560  0.84967641  0.05629632     0.14500
C912        C  0.30273506  0.54676677  0.25908861     0.86300
C913        C  0.27128312  0.53636075  0.23499314    -0.54000
C914        C  0.25314296  0.56253554  0.22159961     0.09200
C915        C  0.26924167  0.59771170  0.23286939     0.20200
C916        C  0.32842901  0.57008166  0.23954559    -0.54700
C917        C  0.31027260  0.59622612  0.22516067     0.09300
C918        C  0.28569595  0.57177698  0.28536824    -0.54200
C919        C  0.26875876  0.59894588  0.27130489     0.09900
H920        H  0.26438707  0.51021992  0.22975508     0.14400
H921        H  0.25505905  0.61971074  0.22154739     0.00100
H922        H  0.35820881  0.56942006  0.24101191     0.14700
H923        H  0.28860440  0.56934872  0.31234448     0.14500
C924        C  0.16217200  0.84124852  0.20001518     0.29800
C925        C  0.22300516  0.85631832  0.16417907     0.29800
C926        C  0.16295835  0.82606245  0.16488880    -0.06400
C927        C  0.16833716  0.88177502  0.19206519    -0.07200
C928        C  0.20031575  0.82976242  0.21486199    -0.07100
C929        C  0.19348560  0.83424401  0.14686071    -0.06400
C930        C  0.20003215  0.88815456  0.17298847    -0.07200
C931        C  0.23071556  0.84108497  0.19858383    -0.07100
C932        C  0.18329941  0.83265053  0.11351716    -0.32500
N933        N  0.14863822  0.82104918  0.11034744     0.14000
C934        C  0.13525959  0.81924101  0.14163194    -0.32500
H935        H  0.10672822  0.81862816  0.14744701     0.16000
C936        C  0.20097392  0.92230292  0.16468663    -0.31400
N937        N  0.17155100  0.93922050  0.17742352     0.12800
C938        C  0.15195084  0.91495771  0.19484179    -0.31400
C939        C  0.26183671  0.82678354  0.21316666    -0.31700
N940        N  0.25176937  0.80156156  0.23373032     0.13300
H941        H  0.28977087  0.83372442  0.20764978     0.15900
C942        C  0.21418034  0.80117261  0.23109160    -0.31700
H943        H  0.19828165  0.77895065  0.23481899     0.15900
H944        H  0.12767004  0.92077516  0.20898168     0.15900
H945        H  0.19897905  0.84271132  0.09341469     0.16000
H946        H  0.22244723  0.93437871  0.15083408     0.15900
C947        C  0.09872075  0.79822772  0.02764908     0.86300
C948        C  0.07331467  0.77440842  0.04760383    -0.54000
C949        C  0.09164955  0.75878028  0.07303486     0.09200
C950        C  0.13277970  0.76686371  0.07511784     0.20200
C951        C  0.11620938  0.82179184  0.05581496    -0.54700
C952        C  0.13357341  0.80499781  0.08044189     0.09300
C953        C  0.12966877  0.77581961  0.01466461    -0.54200
C954        C  0.14768971  0.75949788  0.03926387     0.09900
H955        H  0.04372083  0.77259824  0.04507960     0.14400
H956        H  0.14750250  0.75371023  0.09576302     0.00100
H957        H  0.11353236  0.84909758  0.05736626     0.14700
H958        H  0.13719083  0.77411073  0.98858277     0.14500
C959        C  0.32790120  0.77261115  0.29670076     0.86300
C960        C  0.34393367  0.74746573  0.27144046    -0.54000
C961        C  0.31910113  0.73230246  0.25039328     0.09200
C962        C  0.27748084  0.74230785  0.25995618     0.20200
C963        C  0.30377735  0.79718599  0.27538273    -0.54700
C964        C  0.27660395  0.78176581  0.25587294     0.09300
C965        C  0.29963785  0.75375190  0.31755896    -0.54200
C966        C  0.27299049  0.73751678  0.29970221     0.09900
H967        H  0.37332850  0.74521578  0.26801393     0.14400
H968        H  0.25607601  0.72891610  0.24424972     0.00100
H969        H  0.30702943  0.82451645  0.27612442     0.14700
H970        H  0.29982558  0.75434716  0.34477556     0.14500
C971        C  0.24152777  0.69891805  0.04795616     0.29800
C972        C  0.18117376  0.73767716  0.03510411     0.29800
C973        C  0.24324645  0.73597583  0.06135579    -0.06400
C974        C  0.23247151  0.70473789  0.00826997    -0.07200
C975        C  0.20404218  0.68523548  0.05971760    -0.07100
C976        C  0.21256127  0.75510801  0.05473733    -0.06400
C977        C  0.20080752  0.72499312  0.00241855    -0.07200
C978        C  0.17434619  0.70499244  0.05334424    -0.07100
C979        C  0.22256610  0.78889806  0.05784932    -0.32500
N980        N  0.25819968  0.79184123  0.06808884     0.14000
C981        C  0.27146272  0.75953468  0.06746769    -0.32500
H982        H  0.30023760  0.75368640  0.06671115     0.16000
C983        C  0.19562565  0.72788052  0.46756793    -0.31400
N984        N  0.22274272  0.71125672  0.45068280     0.12800
C985        C  0.24496996  0.69665048  0.47518475    -0.31400
C986        C  0.14355456  0.68880707  0.06494684    -0.31700
N987        N  0.15336881  0.66041239  0.08120320     0.13300
H988        H  0.11588143  0.69606320  0.05896800     0.15900
C989        C  0.18974374  0.65608071  0.07369798    -0.31700
H990        H  0.20448289  0.63261376  0.07554793     0.15900
H991        H  0.26814690  0.68060856  0.46958735     0.15900
H992        H  0.20538209  0.80985434  0.05074573     0.16000
H993        H  0.17314152  0.74077691  0.45519632     0.15900
C994        C  0.24116951  0.71834629  0.31738553     0.29800
C995        C  0.18042144  0.67920132  0.32883363     0.29800
C996        C  0.24162242  0.68162559  0.30402200    -0.06400
C997        C  0.23246417  0.71237786  0.35708496    -0.07200
C998        C  0.20390195  0.73197394  0.30454588    -0.07100
C999        C  0.21185642  0.66199972  0.31100485    -0.06400
C1000       C  0.20041170  0.69212165  0.36194833    -0.07200
C1001       C  0.17385912  0.71220382  0.31012498    -0.07100
C1002       C  0.22085453  0.62867265  0.30442047    -0.32500
N1003       N  0.25425243  0.62753479  0.29019228     0.14000
C1004       C  0.26761058  0.65988583  0.29116800    -0.32500
H1005       H  0.29495252  0.66737201  0.28558244     0.16000
C1006       C  0.19535570  0.68899260  0.39646560    -0.31400
N1007       N  0.22271805  0.70567350  0.41442939     0.12800
C1008       C  0.24518211  0.72027400  0.39080688    -0.31400
C1009       C  0.14324720  0.72920236  0.29810998    -0.31700
N1010       N  0.15364648  0.75759520  0.28203504     0.13300
H1011       H  0.11539141  0.72235275  0.30351332     0.15900
C1012       C  0.19024968  0.76139111  0.29053281    -0.31700
H1013       H  0.20573282  0.78466458  0.28936056     0.15900
H1014       H  0.26864906  0.73628777  0.39738171     0.15900
H1015       H  0.20455604  0.60703923  0.31102502     0.16000
H1016       H  0.17278102  0.67581183  0.40777158     0.15900
N1017       N  0.48928639  0.52893355  0.43426741    -0.06300
N1018       N  0.48338000  0.55267415  0.45762966    -0.58500
N1019       N  0.02071321  0.97313460  0.37629254    -0.06000
N1020       N  0.04804481  0.98165202  0.35714375    -0.60600
N1021       N  0.49021794  0.48667732  0.36514865    -0.05600
N1022       N  0.49629136  0.50283223  0.33752124    -0.58400
N1023       N  0.02003649  0.01316534  0.44173182    -0.05300
N1024       N  0.03599307  0.02633673  0.46883359    -0.60900
C1025       C  0.01302107  0.55064924  0.97894461     0.95800
C1026       C  0.03325436  0.50442420  0.33602365     0.95600
N1027       N  0.50790539  0.88671218  0.42659608    -0.06500
N1028       N  0.50481578  0.86154109  0.40397543    -0.59000
N1029       N  0.03297397  0.94857452  0.48006022    -0.04600
N1030       N  0.06420436  0.94273752  0.49614685    -0.60300
N1031       N  0.50585155  0.93423412  0.49544347    -0.06500
N1032       N  0.51775003  0.92342571  0.52450448    -0.59300
N1033       N  0.03217037  0.90873696  0.41631330    -0.04300
N1034       N  0.04694602  0.89861736  0.38830586    -0.60400
Mn1035     Mn  0.02754714  0.96097646  0.42838642     1.18400
C1036       C  0.02945863  0.86951774  0.38018025     0.97900
C1037       C  0.05431927  0.92151107  0.02051946     0.98600
N1038       N  0.40804712  0.47417533  0.36822590    -0.06600
N1039       N  0.40322335  0.47333197  0.33546963    -0.62900
N1040       N  0.38240355  0.99751525  0.44429910    -0.05400
N1041       N  0.36073599  0.01218154  0.46595703    -0.63500
N1042       N  0.40522363  0.51963016  0.43201355    -0.06100
N1043       N  0.39991419  0.55003208  0.44516460    -0.63100
N1044       N  0.38592273  0.95224396  0.38180556    -0.05000
N1045       N  0.36555040  0.43637120  0.35873410    -0.63800
Mn1046     Mn  0.44803231  0.50384622  0.39890555     1.10700
C1047       C  0.37568149  0.45042529  0.32978063     0.99100
C1048       C  0.37181467  0.54489436  0.96591604     0.99200
N1049       N  0.42559291  0.92147082  0.49950926    -0.06100
N1050       N  0.42881380  0.92593119  0.53225042    -0.61500
N1051       N  0.39597983  0.89045829  0.42489809    -0.05400
N1052       N  0.37876000  0.87222162  0.40141564    -0.58200
N1053       N  0.42542300  0.87475607  0.43579976    -0.06700
N1054       N  0.42892429  0.84529326  0.41998405    -0.61000
N1055       N  0.39652464  0.93722742  0.48797647    -0.05700
N1056       N  0.37957107  0.95289479  0.51249745    -0.58200
Mn1057     Mn  0.46690761  0.90254850  0.46540091     1.20200
Mn1058     Mn  0.38827637  0.94398181  0.43485935     1.10100
Cl1059     Cl  0.45744645  0.95268765  0.43164603    -0.86200
C1060       C  0.39950203  0.94520095  0.04036089     0.96200
C1061       C  0.39950257  0.84416608  0.39873461     0.96000
C1062       C  0.39070007  0.78831009  0.37246599    -0.26500
C1063       C  0.39753910  0.82271229  0.36872910    -0.14600
C1064       C  0.39349581  0.83713956  0.33681283     0.36000
C1065       C  0.37273610  0.81980388  0.31216630    -0.26000
C1066       C  0.35834798  0.78773783  0.31864998    -0.15200
C1067       C  0.37287278  0.76988815  0.34649665     0.37100
N1068       N  0.36714491  0.73397523  0.34930472    -0.89500
H1069       H  0.39649315  0.77658585  0.39631536     0.18200
H1070       H  0.36725224  0.83184659  0.28847355     0.18200
N1071       N  0.40988283  0.86903534  0.32883823    -0.88500
H1072       H  0.37881615  0.72536934  0.37173588     0.35600
H1073       H  0.38137580  0.72202278  0.32993150     0.40700
H1074       H  0.42449217  0.87964178  0.34936006     0.40300
H1075       H  0.38854073  0.88537047  0.32230843     0.35200
C1076       C  0.10658705  0.84467619  0.98962999    -0.26500
C1077       C  0.08237423  0.81912107  0.00008711    -0.14600
C1078       C  0.04560689  0.82766358  0.00307066     0.36000
C1079       C  0.03771314  0.86038287  0.01317849    -0.26000
C1080       C  0.06552256  0.88602229  0.01411380    -0.15200
C1081       C  0.09985770  0.87830347  0.99992724     0.37100
N1082       N  0.12818426  0.90373523  0.49821472    -0.89500
H1083       H  0.13434131  0.83792552  0.98285350     0.18200
H1084       H  0.00927827  0.86533145  0.01906223     0.18200
N1085       N  0.01677967  0.80320842  0.99689122    -0.88500
H1086       H  0.15181376  0.89357574  0.48752741     0.35600
H1087       H  0.13553275  0.91109583  0.52283698     0.40700
H1088       H  0.00045341  0.81173884  0.97690467     0.40300
H1089       H  0.00004747  0.80286247  0.01788311     0.35200
C1090       C  0.36068614  0.46714107  0.27299265    -0.26500
C1091       C  0.34799091  0.45855603  0.30446434    -0.14600
C1092       C  0.31470579  0.47216011  0.31559482     0.36000
C1093       C  0.30067906  0.50047493  0.29996591    -0.26000
C1094       C  0.31904686  0.51494947  0.27310598    -0.15200
C1095       C  0.34564389  0.49467396  0.25640802     0.37100
N1096       N  0.35734258  0.50036184  0.22292114    -0.89500
H1097       H  0.38484469  0.45485316  0.26305010     0.18200
H1098       H  0.27586579  0.51165415  0.30971140     0.18200
N1099       N  0.29727874  0.45972619  0.34478426    -0.88500
H1100       H  0.37519109  0.52105176  0.22250895     0.35600
H1101       H  0.33432959  0.50403660  0.20719331     0.40700
H1102       H  0.27024309  0.45277014  0.33802403     0.40300
H1103       H  0.29624227  0.47953136  0.36260855     0.35200
C1104       C  0.37329340  0.89709769  0.11209711    -0.26500
C1105       C  0.33527264  0.89566473  0.10361973    -0.14600
C1106       C  0.31991325  0.92322398  0.08557695     0.36000
C1107       C  0.34326519  0.94695525  0.07204574    -0.26000
C1108       C  0.38114910  0.94122828  0.07231335    -0.15200
C1109       C  0.39655990  0.91972204  0.09628658     0.37100
N1110       N  0.43584116  0.91841241  0.60150580    -0.89500
H1111       H  0.38600397  0.87969780  0.12907475     0.18200
H1112       H  0.33135885  0.96596816  0.05591832     0.18200
N1113       N  0.28129010  0.92689560  0.07818862    -0.88500
H1114       H  0.44285782  0.90027845  0.61931043     0.35600
H1115       H  0.44440498  0.94185997  0.61158469     0.40700
H1116       H  0.26711787  0.93218890  0.10007214     0.40300
H1117       H  0.27071184  0.90509665  0.06615179     0.35200
C1118       C  0.02322896  0.56591341  0.33052529    -0.26500
C1119       C  0.04726250  0.53964907  0.34006018    -0.14600
C1120       C  0.07782822  0.54815975  0.36174714     0.36000
C1121       C  0.08486109  0.58221530  0.37040337    -0.26000
C1122       C  0.06637038  0.60735873  0.35248025    -0.15200
C1123       C  0.03091164  0.59923345  0.34021310     0.37100
N1124       N  0.00297416  0.62456955  0.33787951    -0.89500
H1125       H  0.99721201  0.56056252  0.31754267     0.18200
H1126       H  0.11046179  0.58838976  0.38374087     0.18200
N1127       N  0.10302762  0.52300143  0.37341124    -0.88500
H1128       H  0.98157255  0.61754223  0.35341911     0.35600
H1129       H  0.99231457  0.62428402  0.31327819     0.40700
H1130       H  0.10390569  0.52426256  0.39963355     0.40300
H1131       H  0.12924540  0.52907627  0.36495865     0.35200
C1132       C  0.31250051  0.58960347  0.02629205    -0.26500
C1133       C  0.33754722  0.61135883  0.04404925    -0.14600
C1134       C  0.37446124  0.61311080  0.03355874     0.36000
C1135       C  0.38548110  0.59137050  0.00726249    -0.26000
C1136       C  0.36005382  0.56917954  0.99109463    -0.15200
C1137       C  0.32334602  0.56864559  0.00040531     0.37100
N1138       N  0.29664287  0.54732013  0.98304331    -0.89500
H1139       H  0.28343324  0.58951475  0.03190641     0.18200
H1140       H  0.41385228  0.59165168  0.99942358     0.18200
N1141       N  0.40007728  0.63734649  0.04822050    -0.88500
H1142       H  0.27585013  0.06269203  0.97326921     0.35600
H1143       H  0.28478466  0.03140946  0.00056505     0.40700
H1144       H  0.39106537  0.66140746  0.04148571     0.40300
H1145       H  0.42614632  0.63435284  0.03797885     0.35200
C1146       C  0.03007852  0.81449378  0.30177453    -0.26500
C1147       C  0.04938659  0.83662999  0.28071575    -0.14600
C1148       C  0.04806086  0.87160501  0.28831782     0.36000
C1149       C  0.03773639  0.88217744  0.32035994    -0.26000
C1150       C  0.02721371  0.85863540  0.34445999    -0.15200
C1151       C  0.01942323  0.82517381  0.33398857     0.37100
N1152       N  0.00388748  0.80167051  0.35679058    -0.89500
H1153       H  0.02816998  0.78775822  0.29510388     0.18200
H1154       H  0.04006002  0.90892349  0.32690413     0.18200
N1155       N  0.05719364  0.89652532  0.26435414    -0.88500
H1156       H  0.00084425  0.77772460  0.34525899     0.35600
H1157       H  0.97731249  0.80997344  0.36196760     0.40700
H1158       H  0.03428990  0.91206491  0.26079824     0.40600
H1159       H  0.07867005  0.91160087  0.27452093     0.35200
C1160       C  0.04044971  0.55153619  0.07010265    -0.26500
C1161       C  0.04439187  0.58641586  0.07579581    -0.14600
C1162       C  0.02576527  0.60860103  0.05337802     0.36000
C1163       C  0.01114965  0.59603559  0.02268322    -0.26000
C1164       C  0.01380177  0.56170987  0.01452793    -0.15200
C1165       C  0.02518888  0.53907530  0.03970663     0.37100
N1166       N  0.02318969  0.50327330  0.53383416    -0.89500
H1167       H  0.05150121  0.53363545  0.08769616     0.18200
H1168       H  0.00109661  0.61355102  0.00408669     0.18200
N1169       N  0.02487547  0.64438107  0.06018635    -0.88500
H1170       H  0.00657150  0.49297179  0.55212857     0.35600
H1171       H  0.04973856  0.49372497  0.53738379     0.40700
H1172       H  0.99731542  0.65187334  0.06019152     0.40300
H1173       H  0.03786793  0.65672374  0.04073824     0.35200
C1174       C  0.07326347  0.60080762  0.60069855     0.86300
C1175       C  0.09772762  0.57708347  0.62292037    -0.54000
C1176       C  0.12449536  0.59362077  0.64203486     0.09200
C1177       C  0.12216928  0.63381213  0.63705283     0.20200
C1178       C  0.05625349  0.62650766  0.62529538    -0.54700
C1179       C  0.08075907  0.64530012  0.64380894     0.09300
C1180       C  0.10154763  0.62048889  0.58023541    -0.54200
C1181       C  0.12754786  0.63785523  0.59816623     0.09900
H1182       H  0.09588410  0.54970293  0.62237149     0.14400
H1183       H  0.14189234  0.64888595  0.65297124     0.00100
H1184       H  0.02697490  0.63159260  0.62546131     0.14700
H1185       H  0.10068087  0.62112187  0.55299804     0.14500
C1186       C  0.06955506  0.67949054  0.66209977     0.29800
C1187       C  0.07030917  0.74270556  0.69345728     0.29800
C1188       C  0.08464150  0.70850606  0.64229977    -0.06400
C1189       C  0.02984282  0.69402696  0.67095906    -0.07200
C1190       C  0.08882851  0.68222989  0.69592165    -0.07100
C1191       C  0.08425977  0.74090704  0.65749313    -0.06400
C1192       C  0.03035036  0.72646534  0.68781583    -0.07200
C1193       C  0.08921161  0.71424729  0.71160037    -0.07100
C1194       C  0.07495927  0.76215219  0.63143205    -0.32500
N1195       N  0.07400000  0.74522078  0.60158307     0.14000
C1196       C  0.07746627  0.71240830  0.60870691    -0.32500
H1197       H  0.07021075  0.69208657  0.59118585     0.16000
C1198       C  0.49347411  0.73440969  0.69419748    -0.31400
N1199       N  0.47069659  0.70908181  0.68163155     0.12800
C1200       C  0.49255189  0.68468217  0.66737463    -0.31400
C1201       C  0.08541526  0.70909618  0.74520010    -0.31700
N1202       N  0.08405820  0.67597544  0.75086625     0.13300
H1203       H  0.07708411  0.72819707  0.76319403     0.15900
C1204       C  0.08435621  0.65961904  0.72108795    -0.31700
H1205       H  0.07267260  0.63478827  0.71740580     0.15900
H1206       H  0.48205229  0.66156943  0.65553429     0.15900
H1207       H  0.06286612  0.78688879  0.63439626     0.16000
H1208       H  0.48379383  0.75729932  0.70635604     0.15900
C1209       C  0.07745374  0.82034006  0.75741493     0.86300
C1210       C  0.10424655  0.84242711  0.73683464    -0.54000
C1211       C  0.12977857  0.82450771  0.71942774     0.09200
C1212       C  0.12484611  0.78486572  0.72406716     0.20200
C1213       C  0.05921857  0.79526025  0.73169986    -0.54700
C1214       C  0.08290419  0.77583999  0.71389121     0.09300
C1215       C  0.10362472  0.79903918  0.77961607    -0.54200
C1216       C  0.12883014  0.78045636  0.76335433     0.09900
H1217       H  0.10528417  0.86965167  0.73687522     0.14400
H1218       H  0.14436303  0.76914796  0.70963726     0.00100
H1219       H  0.02967524  0.79153884  0.72989365     0.14700
H1220       H  0.10223543  0.79863029  0.80679872     0.14500
C1221       C  0.15677358  0.57529817  0.66247062     0.29800
C1222       C  0.21866031  0.55994820  0.69964010     0.29800
C1223       C  0.15814104  0.58897095  0.69841723    -0.06400
C1224       C  0.16373028  0.53432050  0.66915198    -0.07200
C1225       C  0.19480885  0.58775392  0.64948280    -0.07100
C1226       C  0.18972759  0.58158279  0.71688883    -0.06400
C1227       C  0.19587970  0.52818197  0.68915224    -0.07200
C1228       C  0.22539538  0.57589228  0.66609729    -0.07100
C1229       C  0.18053540  0.58228613  0.75011112    -0.32500
N1230       N  0.14519269  0.59151112  0.75306071     0.14000
C1231       C  0.13077035  0.59282892  0.72151447    -0.32500
H1232       H  0.10184617  0.59064328  0.71562224     0.16000
C1233       C  0.19877430  0.99379870  0.69554845    -0.31400
N1234       N  0.17064639  0.97607630  0.68063228     0.12800
C1235       C  0.14934397  0.50014429  0.66384842    -0.31400
C1236       C  0.25631321  0.59050552  0.65319458    -0.31700
N1237       N  0.24629851  0.61660136  0.63372035     0.13300
H1238       H  0.28404758  0.58225636  0.65816710     0.15900
C1239       C  0.20887760  0.61688118  0.63475744    -0.31700
H1240       H  0.19363247  0.63918176  0.63034883     0.15900
H1241       H  0.12528639  0.99367151  0.64842879     0.15900
H1242       H  0.19722646  0.57227328  0.77018085     0.16000
H1243       H  0.22044418  0.98156744  0.70944431     0.15900
C1244       C  0.31965962  0.63511479  0.56895705     0.86300
C1245       C  0.34147532  0.65736367  0.59526394    -0.54000
C1246       C  0.31933616  0.67651582  0.61553887     0.09200
C1247       C  0.27673082  0.67208964  0.60542638     0.20200
C1248       C  0.29331601  0.61479506  0.59097257    -0.54700
C1249       C  0.27027598  0.63340292  0.60997518     0.09300
C1250       C  0.29586442  0.65937988  0.54839617    -0.54200
C1251       C  0.27232269  0.67813813  0.56595704     0.09900
H1252       H  0.37049278  0.65434716  0.60107117     0.14400
H1253       H  0.25803308  0.68774894  0.62088689     0.00100
H1254       H  0.29354348  0.58729689  0.59193763     0.14700
H1255       H  0.29594950  0.65975181  0.52118580     0.14500
C1256       C  0.09127486  0.62419182  0.82816310     0.86300
C1257       C  0.07289137  0.64961777  0.80419314    -0.54000
C1258       C  0.09624466  0.66111499  0.78116158     0.09200
C1259       C  0.13551295  0.64849897  0.78495379     0.20200
C1260       C  0.10838559  0.59715941  0.80389131    -0.54700
C1261       C  0.13148266  0.61023006  0.78150335     0.09300
C1262       C  0.12397533  0.64379373  0.84487486    -0.54200
C1263       C  0.14699224  0.65685499  0.82220670     0.09900
H1264       H  0.04411301  0.65616942  0.80298441     0.14400
H1265       H  0.15393242  0.65907690  0.76586798     0.00100
H1266       H  0.10112616  0.57048707  0.80287438     0.14700
H1267       H  0.12778513  0.64761302  0.87173033     0.14500
C1268       C  0.33170169  0.71708452  0.71559026     0.29800
C1269       C  0.33169123  0.69091736  0.65099047     0.29800
C1270       C  0.31261837  0.73770928  0.68895349    -0.06400
C1271       C  0.37178517  0.71342672  0.69972167    -0.07200
C1272       C  0.31769069  0.68110153  0.71068026    -0.07100
C1273       C  0.31291177  0.72455289  0.65621126    -0.06400
C1274       C  0.37141354  0.69934392  0.66630939    -0.07200
C1275       C  0.31686728  0.66795869  0.67778845    -0.07100
C1276       C  0.31753889  0.75176871  0.63597831    -0.32500
N1277       N  0.31832319  0.78056129  0.65435245     0.14000
C1278       C  0.31654487  0.77225436  0.68655701    -0.32500
H1279       H  0.32465846  0.78928387  0.70692129     0.16000
C1280       C  0.40809065  0.69654210  0.65681734    -0.31400
N1281       N  0.43103332  0.70856989  0.68218243     0.12800
C1282       C  0.40929102  0.71907586  0.70818733    -0.31400
C1283       C  0.32412536  0.63385899  0.68019770    -0.31700
N1284       N  0.32827975  0.62530885  0.71250913     0.13300
H1285       H  0.33070370  0.61712210  0.65941584     0.15900
C1286       C  0.32755508  0.65440873  0.73055500    -0.31700
H1287       H  0.33947640  0.65657828  0.75556565     0.15900
H1288       H  0.42004035  0.72928879  0.73184214     0.15900
H1289       H  0.32866116  0.75011299  0.61138465     0.16000
H1290       H  0.41741052  0.68658841  0.63303742     0.15900
C1291       C  0.31166051  0.86552195  0.61294667     0.86300
C1292       C  0.27970888  0.87735265  0.63470984    -0.54000
C1293       C  0.25622692  0.85241066  0.64225731     0.09200
C1294       C  0.26779170  0.81670757  0.62867162     0.20200
C1295       C  0.33056895  0.83723740  0.63354842    -0.54700
C1296       C  0.30697701  0.81214790  0.64146015     0.09300
C1297       C  0.29438267  0.84521388  0.58206112    -0.54200
C1298       C  0.27181212  0.81896248  0.59069682     0.09900
H1299       H  0.27729900  0.90277153  0.64519377     0.14400
H1300       H  0.24971095  0.79533888  0.63577664     0.00100
H1301       H  0.35956842  0.83475811  0.63953490     0.14700
H1302       H  0.30166709  0.84966749  0.55629025     0.14500
C1303       C  0.30274361  0.54677285  0.75908853     0.86300
C1304       C  0.27129271  0.53636501  0.73499235    -0.54000
C1305       C  0.25315131  0.56253852  0.72159775     0.09200
C1306       C  0.26924742  0.59771560  0.73286791     0.20200
C1307       C  0.32843650  0.57008811  0.73954501    -0.54700
C1308       C  0.31027817  0.59623125  0.72515959     0.09300
C1309       C  0.28570294  0.57178354  0.78536751    -0.54200
C1310       C  0.26876424  0.59895165  0.77130380     0.09900
H1311       H  0.26439872  0.51022376  0.72975391     0.14400
H1312       H  0.25506400  0.61971366  0.72154486     0.00100
H1313       H  0.35821630  0.56942765  0.74101037     0.14700
H1314       H  0.28861217  0.56935635  0.81234381     0.14500
C1315       C  0.16216637  0.84124931  0.70001049     0.29800
C1316       C  0.22299796  0.85632091  0.66417407     0.29800
C1317       C  0.16295217  0.82606313  0.66488429    -0.06400
C1318       C  0.16832936  0.88177639  0.69205983    -0.07200
C1319       C  0.20031017  0.82976485  0.71485733    -0.07100
C1320       C  0.19347892  0.83424539  0.64685610    -0.06400
C1321       C  0.20002400  0.88815665  0.67298298    -0.07200
C1322       C  0.23070922  0.84108808  0.69857908    -0.07100
C1323       C  0.18329314  0.83265054  0.61351246    -0.32500
N1324       N  0.14863210  0.82104878  0.61034267     0.14000
C1325       C  0.13525324  0.81924234  0.64162723    -0.32500
H1326       H  0.10672155  0.81863325  0.64744166     0.16000
C1327       C  0.20096483  0.92230492  0.66468052    -0.31400
N1328       N  0.17154139  0.93922223  0.67741681     0.12800
C1329       C  0.15194198  0.91495902  0.69483553    -0.31400
C1330       C  0.26183069  0.82678800  0.71316284    -0.31700
N1331       N  0.25176408  0.80156671  0.73372777     0.13300
H1332       H  0.28976473  0.83372918  0.70764584     0.15900
C1333       C  0.21417522  0.80117690  0.73108972    -0.31700
H1334       H  0.19827706  0.77895584  0.73482197     0.15900
H1335       H  0.12766085  0.92077613  0.70897511     0.15900
H1336       H  0.19897278  0.84271132  0.59340997     0.16000
H1337       H  0.22243821  0.93438092  0.65082818     0.15900
C1338       C  0.09870697  0.79821587  0.52765048     0.86300
C1339       C  0.07330722  0.77439613  0.54761053    -0.54000
C1340       C  0.09164760  0.75877249  0.57304068     0.09200
C1341       C  0.13277701  0.76685912  0.57511783     0.20200
C1342       C  0.11619851  0.82178394  0.55581210    -0.54700
C1343       C  0.13356827  0.80499371  0.58043835     0.09300
C1344       C  0.12965513  0.77580900  0.51466353    -0.54200
C1345       C  0.14768152  0.75949075  0.53926229     0.09900
H1346       H  0.04371329  0.77258242  0.54508917     0.14400
H1347       H  0.14750397  0.75370835  0.59576242     0.00100
H1348       H  0.11351854  0.84908920  0.55736282     0.14700
H1349       H  0.13717201  0.77409716  0.48858047     0.14500
C1350       C  0.32789970  0.77261950  0.79669480     0.86300
C1351       C  0.34392968  0.74747297  0.77143448    -0.54000
C1352       C  0.31909563  0.73230775  0.75039062     0.09200
C1353       C  0.27747662  0.74231413  0.75995574     0.20200
C1354       C  0.30377416  0.79719341  0.77537771    -0.54700
C1355       C  0.27659931  0.78177211  0.75587063     0.09300
C1356       C  0.29963863  0.75376165  0.81755642    -0.54200
C1357       C  0.27299071  0.73752469  0.79970232     0.09900
H1358       H  0.37332406  0.74522356  0.76800541     0.14400
H1359       H  0.25607047  0.72892142  0.74425164     0.00100
H1360       H  0.30702617  0.82452388  0.77611767     0.14700
H1361       H  0.29982929  0.75435815  0.84477313     0.14500
C1362       C  0.24152089  0.69891245  0.54795159     0.29800
C1363       C  0.18116514  0.73766982  0.53510106     0.29800
C1364       C  0.24323938  0.73597077  0.56134933    -0.06400
C1365       C  0.23246182  0.70473014  0.50826559    -0.07200
C1366       C  0.20403635  0.68522960  0.55971598    -0.07100
C1367       C  0.21255378  0.75510191  0.55473153    -0.06400
C1368       C  0.20079662  0.72498411  0.50241505    -0.07200
C1369       C  0.17433959  0.70498599  0.55334353    -0.07100
C1370       C  0.22255605  0.78889221  0.55784806    -0.32500
N1371       N  0.25818921  0.79183596  0.56808909     0.14000
C1372       C  0.27145426  0.75953010  0.56746521    -0.32500
H1373       H  0.30022939  0.75368288  0.56671025     0.16000
C1374       C  0.19563822  0.72788991  0.96757119    -0.31400
N1375       N  0.22275486  0.71126470  0.95068672     0.12800
C1376       C  0.24498031  0.69665754  0.97518946    -0.31400
C1377       C  0.14354900  0.68880059  0.56494809    -0.31700
N1378       N  0.15336448  0.66040661  0.58120502     0.13300
H1379       H  0.11587547  0.69605579  0.55896948     0.15900
C1380       C  0.18973894  0.65607492  0.57369774    -0.31700
H1381       H  0.20447813  0.63260788  0.57554676     0.15900
H1382       H  0.26815593  0.68061378  0.96959277     0.15900
H1383       H  0.20537086  0.80984814  0.55074618     0.16000
H1384       H  0.17315465  0.74078645  0.95519887     0.15900
C1385       C  0.24117336  0.71835284  0.81738808     0.29800
C1386       C  0.18042729  0.67920729  0.82883944     0.29800
C1387       C  0.24162538  0.68163279  0.80402157    -0.06400
C1388       C  0.23247276  0.71238220  0.85708819    -0.07200
C1389       C  0.20390445  0.73198214  0.80455338    -0.07100
C1390       C  0.21186069  0.66200638  0.81100638    -0.06400
C1391       C  0.20042123  0.69212533  0.86195332    -0.07200
C1392       C  0.17386248  0.71221191  0.81013411    -0.07100
C1393       C  0.22086047  0.62867906  0.80442246    -0.32500
N1394       N  0.25425698  0.62754147  0.79019099     0.14000
C1395       C  0.26761368  0.65989319  0.79116619    -0.32500
H1396       H  0.29495544  0.66738000  0.78558043     0.16000
C1397       C  0.19536698  0.68899709  0.89647100    -0.31400
N1398       N  0.22272966  0.70567910  0.91443351     0.12800
C1399       C  0.24519212  0.72027948  0.89080957    -0.31400
C1400       C  0.14324975  0.72920944  0.79811820    -0.31700
N1401       N  0.15364768  0.75760232  0.78204214     0.13300
H1402       H  0.11539419  0.72235767  0.80351977     0.15900
C1403       C  0.19025155  0.76139846  0.79053822    -0.31700
H1404       H  0.20573558  0.78467107  0.78936173     0.15900
H1405       H  0.26865818  0.73629490  0.89738302     0.15900
H1406       H  0.20456397  0.60704520  0.81102977     0.16000
H1407       H  0.17279221  0.67581734  0.90777797     0.15900
N1408       N  0.48928136  0.52894281  0.93425929    -0.06300
N1409       N  0.48337629  0.55268480  0.95762051    -0.58500
N1410       N  0.02069517  0.97315153  0.87628147    -0.06000
N1411       N  0.04802550  0.98167518  0.85713392    -0.60600
N1412       N  0.49021216  0.48668434  0.86514254    -0.05600
N1413       N  0.49628673  0.50284296  0.83751749    -0.58400
N1414       N  0.02001594  0.01318079  0.94172319    -0.05300
N1415       N  0.03597282  0.02635025  0.96882585    -0.60900
C1416       C  0.01299099  0.55065315  0.47894716     0.95800
C1417       C  0.03327799  0.50439900  0.83602892     0.95600
N1418       N  0.50790935  0.88669897  0.92660310    -0.06500
N1419       N  0.50482614  0.86152445  0.90398588    -0.59000
N1420       N  0.03297648  0.94859101  0.98004362    -0.04600
N1421       N  0.06421172  0.94275337  0.99612191    -0.60300
N1422       N  0.50585064  0.93421939  0.99544866    -0.06500
N1423       N  0.51774760  0.92341543  0.02451200    -0.59300
N1424       N  0.03217021  0.90875482  0.91629949    -0.04300
N1425       N  0.04694692  0.89863594  0.88829251    -0.60400
Mn1426     Mn  0.02753696  0.96099340  0.92837298     1.18400
C1427       C  0.02946622  0.86953200  0.88017032     0.97900
C1428       C  0.05430488  0.92149430  0.52054155     0.98600
N1429       N  0.40804268  0.47417718  0.86822429    -0.06600
N1430       N  0.40322095  0.47332972  0.83546801    -0.62900
N1431       N  0.38240394  0.99750529  0.94430333    -0.05400
N1432       N  0.36073420  0.01217193  0.96595956    -0.63500
N1433       N  0.40521996  0.51963648  0.93200905    -0.06100
N1434       N  0.39991238  0.55003834  0.94516088    -0.63100
N1435       N  0.38592511  0.95223766  0.88180657    -0.05000
N1436       N  0.36554755  0.43637100  0.85873464    -0.63800
Mn1437     Mn  0.44802702  0.50385220  0.89890041     1.10700
C1438       C  0.37567916  0.45042290  0.82978011     0.99100
C1439       C  0.37181443  0.54488820  0.46591764     0.99200
N1440       N  0.42559152  0.92145678  0.99950895    -0.06100
N1441       N  0.42881500  0.92591995  0.03224937    -0.61500
N1442       N  0.39598254  0.89044793  0.92489561    -0.05400
N1443       N  0.37876655  0.87221405  0.90140879    -0.58200
N1444       N  0.42542503  0.87474494  0.93579809    -0.06700
N1445       N  0.42892962  0.84528467  0.91997837    -0.61000
N1446       N  0.39652282  0.93721302  0.98797651    -0.05700
N1447       N  0.37957087  0.95288212  0.01249752    -0.58200
Mn1448     Mn  0.46690778  0.90253513  0.96540341     1.20200
Mn1449     Mn  0.38827717  0.94397120  0.93486006     1.10100
Cl1450     Cl  0.45744783  0.95267633  0.93164994    -0.86200
C1451       C  0.39949962  0.94521127  0.54036163     0.96200
C1452       C  0.39951098  0.84415995  0.89872546     0.96000
C1453       C  0.39071635  0.78830744  0.87244917    -0.26500
C1454       C  0.39755192  0.82271075  0.86871681    -0.14600
C1455       C  0.39350043  0.83714338  0.83680378     0.36000
C1456       C  0.37273554  0.81981139  0.81215863    -0.26000
C1457       C  0.35834944  0.78774437  0.81864062    -0.15200
C1458       C  0.37288084  0.76989000  0.84648156     0.37100
N1459       N  0.36714833  0.73397742  0.84928772    -0.89500
H1460       H  0.39651488  0.77657956  0.89629572     0.18200
H1461       H  0.36724562  0.83185811  0.78846905     0.18200
N1462       N  0.40988153  0.86904239  0.82883198    -0.88500
H1463       H  0.37882329  0.72536800  0.87171598     0.35600
H1464       H  0.38137234  0.72202441  0.82991063     0.40700
H1465       H  0.42449263  0.87964731  0.84935379     0.40300
H1466       H  0.38853591  0.88537543  0.82230754     0.35200
C1467       C  0.10655570  0.84465931  0.48962424    -0.26500
C1468       C  0.08234897  0.81910360  0.50008927    -0.14600
C1469       C  0.04558437  0.82764824  0.50308968     0.36000
C1470       C  0.03769865  0.86036415  0.51321575    -0.26000
C1471       C  0.06550739  0.88600426  0.51413665    -0.15200
C1472       C  0.09983337  0.87828562  0.49992996     0.37100
N1473       N  0.12820910  0.90375407  0.99822451    -0.89500
H1474       H  0.13430508  0.83790842  0.48283245     0.18200
H1475       H  0.00926862  0.86531169  0.51911831     0.18200
N1476       N  0.01675291  0.80319803  0.49690676    -0.88500
H1477       H  0.15184715  0.89359360  0.98755333     0.35600
H1478       H  0.13553999  0.91111911  0.02284950     0.40700
H1479       H  0.00042111  0.81173956  0.47692889     0.40300
H1480       H  0.00002776  0.80284275  0.51790296     0.35200
C1481       C  0.36068604  0.46714050  0.77299337    -0.26500
C1482       C  0.34798871  0.45855616  0.80446462    -0.14600
C1483       C  0.31470716  0.47216679  0.81559637     0.36000
C1484       C  0.30068421  0.50048224  0.79996613    -0.26000
C1485       C  0.31905502  0.51495564  0.77310728    -0.15200
C1486       C  0.34565178  0.49467833  0.75641075     0.37100
N1487       N  0.35736081  0.50037099  0.72292800    -0.89500
H1488       H  0.38484322  0.45484975  0.76305132     0.18200
H1489       H  0.27587184  0.51166371  0.80971097     0.18200
N1490       N  0.29728185  0.45974076  0.84479010    -0.88500
H1491       H  0.37521440  0.52105811  0.72252490     0.35600
H1492       H  0.33435319  0.50405310  0.70719589     0.40700
H1493       H  0.27024337  0.45278994  0.83803487     0.40300
H1494       H  0.29625366  0.47954873  0.86261210     0.35200
C1495       C  0.37328423  0.89709949  0.61209103    -0.26500
C1496       C  0.33526458  0.89566238  0.60360821    -0.14600
C1497       C  0.31990527  0.92321908  0.58556155     0.36000
C1498       C  0.34325659  0.94695576  0.57203811    -0.26000
C1499       C  0.38114157  0.94123389  0.57231136    -0.15200
C1500       C  0.39655075  0.91972811  0.59628560     0.37100
N1501       N  0.43585112  0.91839881  0.10149827    -0.89500
H1502       H  0.38599411  0.87970105  0.62907061     0.18200
H1503       H  0.33135053  0.96596823  0.55591002     0.18200
N1504       N  0.28128373  0.92688223  0.57816011    -0.88500
H1505       H  0.44286872  0.90026263  0.11930029     0.35600
H1506       H  0.44442265  0.94184453  0.11157613     0.40700
H1507       H  0.26709902  0.93216529  0.60003878     0.40300
H1508       H  0.27071780  0.90508385  0.56611319     0.35200
C1509       C  0.02324836  0.56588920  0.83053145    -0.26500
C1510       C  0.04728612  0.53962485  0.84005864    -0.14600
C1511       C  0.07785940  0.54813553  0.86173537     0.36000
C1512       C  0.08489193  0.58219044  0.87039461    -0.26000
C1513       C  0.06639272  0.60733584  0.85248091    -0.15200
C1514       C  0.03093229  0.59920953  0.84021804     0.37100
N1515       N  0.00299311  0.62454466  0.83788945    -0.89500
H1516       H  0.99722766  0.56053832  0.81755531     0.18200
H1517       H  0.11049724  0.58836452  0.88372463     0.18200
N1518       N  0.10306682  0.52297727  0.87338515    -0.88500
H1519       H  0.98159536  0.61751692  0.85343304     0.35600
H1520       H  0.99232802  0.62425866  0.81328990     0.40700
H1521       H  0.10395649  0.52423323  0.89960747     0.40300
H1522       H  0.12927971  0.52905627  0.86492373     0.35200
C1523       C  0.31249825  0.58960088  0.52629107    -0.26500
C1524       C  0.33754478  0.61135648  0.54404860    -0.14600
C1525       C  0.37445988  0.61310516  0.53356104     0.36000
C1526       C  0.38548037  0.59136336  0.50726601    -0.26000
C1527       C  0.36005290  0.56917351  0.49109654    -0.15200
C1528       C  0.32334434  0.56864175  0.50040519     0.37100
N1529       N  0.29664088  0.54731814  0.48304129    -0.89500
H1530       H  0.28343063  0.58951342  0.53190414     0.18200
H1531       H  0.41385225  0.59164272  0.49942908     0.18200
N1532       N  0.40007670  0.63733911  0.54822452    -0.88500
H1533       H  0.27585137  0.06269387  0.47327299     0.35600
H1534       H  0.28479163  0.03141155  0.50056774     0.40700
H1535       H  0.39106727  0.66140077  0.54148903     0.40300
H1536       H  0.42614624  0.63434367  0.53798469     0.35200
C1537       C  0.03007159  0.81450516  0.80176559    -0.26500
C1538       C  0.04938457  0.83663736  0.78070690    -0.14600
C1539       C  0.04806554  0.87161291  0.78830766     0.36000
C1540       C  0.03774722  0.88218758  0.82035027    -0.26000
C1541       C  0.02722028  0.85864787  0.84445080    -0.15200
C1542       C  0.01941802  0.82518840  0.83397898     0.37100
N1543       N  0.00386908  0.80169035  0.85677872    -0.89500
H1544       H  0.02815683  0.78776982  0.79509537     0.18200
H1545       H  0.04007722  0.90893346  0.82689345     0.18200
N1546       N  0.05719818  0.89653155  0.76434221    -0.88500
H1547       H  0.00081376  0.77774655  0.84524500     0.35600
H1548       H  0.97729807  0.81000451  0.86195477     0.40700
H1549       H  0.03429617  0.91207381  0.76078870     0.40600
H1550       H  0.07867806  0.91160488  0.77450605     0.35200
C1551       C  0.04044855  0.55153096  0.57010058    -0.26500
C1552       C  0.04438806  0.58641013  0.57579931    -0.14600
C1553       C  0.02575722  0.60859725  0.55338595     0.36000
C1554       C  0.01113205  0.59603466  0.52269313    -0.26000
C1555       C  0.01378057  0.56170968  0.51453294    -0.15200
C1556       C  0.02517942  0.53907316  0.53970601     0.37100
N1557       N  0.02319434  0.50327462  0.03383995    -0.89500
H1558       H  0.05150846  0.53362848  0.58768819     0.18200
H1559       H  0.00107421  0.61355229  0.50410075     0.18200
N1560       N  0.02487206  0.64437705  0.56019613    -0.88500
H1561       H  0.00656755  0.49297877  0.05213103     0.35600
H1562       H  0.04974015  0.49372200  0.03739831     0.40700
H1563       H  0.99731301  0.65187176  0.56020628     0.40300
H1564       H  0.03786209  0.65671944  0.54074632     0.35200
C1565       C  0.57323678  0.10080989  0.10070286     0.86300
C1566       C  0.59769711  0.07708146  0.12292485    -0.54000
C1567       C  0.62446495  0.09361669  0.14204365     0.09200
C1568       C  0.62214459  0.13380713  0.13706236     0.20200
C1569       C  0.55622959  0.12651149  0.12530056    -0.54700
C1570       C  0.58073660  0.14530044  0.14381661     0.09300
C1571       C  0.60152601  0.12048836  0.08024304    -0.54200
C1572       C  0.62752894  0.13784842  0.09817719     0.09900
H1573       H  0.59584998  0.04970083  0.12237206     0.14400
H1574       H  0.64186739  0.14887832  0.15298298     0.00100
H1575       H  0.52695186  0.13160071  0.12546471     0.14700
H1576       H  0.60066134  0.12112367  0.05300573     0.14500
C1577       C  0.56953784  0.17949396  0.16210596     0.29800
C1578       C  0.57029680  0.24271323  0.19345758     0.29800
C1579       C  0.58461181  0.20850998  0.14229713    -0.06400
C1580       C  0.52982834  0.19402607  0.17097718    -0.07200
C1581       C  0.58882256  0.18223886  0.19592331    -0.07100
C1582       C  0.58423278  0.24091238  0.15748812    -0.06400
C1583       C  0.53033759  0.22646582  0.18783138    -0.07200
C1584       C  0.58921180  0.21426018  0.21159612    -0.07100
C1585       C  0.57492356  0.26215532  0.13142720    -0.32500
N1586       N  0.57395876  0.24522291  0.10157818     0.14000
C1587       C  0.57742560  0.21241031  0.10870499    -0.32500
H1588       H  0.57017630  0.19208674  0.09118411     0.16000
C1589       C  0.99346857  0.23440548  0.19422745    -0.31400
N1590       N  0.97069040  0.20907250  0.18167241     0.12800
C1591       C  0.99254404  0.18467635  0.16740800    -0.31400
C1592       C  0.58541779  0.20911873  0.24519684    -0.31700
N1593       N  0.58404274  0.17600178  0.25087026     0.13300
H1594       H  0.57708493  0.22822473  0.26318434     0.15900
C1595       C  0.58434171  0.15963649  0.22109662    -0.31700
H1596       H  0.57264165  0.13481140  0.21742040     0.15900
H1597       H  0.98204441  0.16156123  0.15557240     0.15900
H1598       H  0.56284325  0.28689759  0.13439154     0.16000
H1599       H  0.98378877  0.25729436  0.20638747     0.15900
C1600       C  0.57743842  0.32035870  0.25740904     0.86300
C1601       C  0.60422765  0.34244274  0.23682091    -0.54000
C1602       C  0.62976639  0.32451924  0.21942419     0.09200
C1603       C  0.62483391  0.28487880  0.22407051     0.20200
C1604       C  0.55920579  0.29527057  0.23169960    -0.54700
C1605       C  0.58289228  0.27585008  0.21389195     0.09300
C1606       C  0.60361332  0.29906810  0.27961511    -0.54200
C1607       C  0.62881755  0.28048088  0.26335906     0.09900
H1608       H  0.60525528  0.36966745  0.23684715     0.14400
H1609       H  0.64435230  0.26915822  0.20964533     0.00100
H1610       H  0.52966290  0.29154637  0.22989446     0.14700
H1611       H  0.60222641  0.29866775  0.30679833     0.14500
C1612       C  0.65674027  0.07529778  0.16248608     0.29800
C1613       C  0.71861967  0.05995538  0.19966666     0.29800
C1614       C  0.65809884  0.08897290  0.19843325    -0.06400
C1615       C  0.66369955  0.03432026  0.16917008    -0.07200
C1616       C  0.69477974  0.08775831  0.14950505    -0.07100
C1617       C  0.68968248  0.08158886  0.21690877    -0.06400
C1618       C  0.69584496  0.02818603  0.18917660    -0.07200
C1619       C  0.72536241  0.07589702  0.16612547    -0.07100
C1620       C  0.68049258  0.08230963  0.25013122    -0.32500
N1621       N  0.64515309  0.09154428  0.25307719     0.14000
C1622       C  0.63072837  0.09284589  0.22152973    -0.32500
H1623       H  0.60180379  0.09066160  0.21563877     0.16000
C1624       C  0.69880962  0.49378672  0.19553084    -0.31400
N1625       N  0.67067492  0.47606987  0.18061786     0.12800
C1626       C  0.64931966  0.00014106  0.16386516    -0.31400
C1627       C  0.75628498  0.09051038  0.15323262    -0.31700
N1628       N  0.74627791  0.11660829  0.13375905     0.13300
H1629       H  0.78401763  0.08225988  0.15821201     0.15900
C1630       C  0.70885591  0.11688899  0.13478788    -0.31700
H1631       H  0.69361425  0.13919150  0.13037695     0.15900
H1632       H  0.62531169  0.49367245  0.14842320     0.15900
H1633       H  0.69718271  0.07230566  0.27020581     0.16000
H1634       H  0.72048271  0.48155251  0.20942058     0.15900
C1635       C  0.81965081  0.13510428  0.06900109     0.86300
C1636       C  0.84146897  0.15735601  0.09530360    -0.54000
C1637       C  0.81933115  0.17651304  0.11557475     0.09200
C1638       C  0.77672487  0.17208951  0.10546281     0.20200
C1639       C  0.79330390  0.11479187  0.09101982    -0.54700
C1640       C  0.77026385  0.13340477  0.11001706     0.09300
C1641       C  0.79585993  0.15936955  0.04843514    -0.54200
C1642       C  0.77231824  0.17813128  0.06599267     0.09900
H1643       H  0.87048531  0.15433916  0.10111403     0.14400
H1644       H  0.75802914  0.18775359  0.12092070     0.00100
H1645       H  0.79352609  0.08729370  0.09198740     0.14700
H1646       H  0.79594541  0.15973742  0.02122449     0.14500
C1647       C  0.59121912  0.12422329  0.32816887     0.86300
C1648       C  0.57284794  0.14965276  0.30419525    -0.54000
C1649       C  0.59621329  0.16114952  0.28117314     0.09200
C1650       C  0.63547794  0.14853193  0.28497788     0.20200
C1651       C  0.60833791  0.09719330  0.30390043    -0.54700
C1652       C  0.63144332  0.11026327  0.28152081     0.09300
C1653       C  0.62391522  0.14382474  0.34489488    -0.54200
C1654       C  0.64694313  0.15688853  0.32223505     0.09900
H1655       H  0.54407005  0.15620553  0.30297600     0.14400
H1656       H  0.65390480  0.15910989  0.26589802     0.00100
H1657       H  0.60107395  0.07052207  0.30287637     0.14700
H1658       H  0.62771435  0.14764264  0.37175189     0.14500
C1659       C  0.83168769  0.21709319  0.21561854     0.29800
C1660       C  0.83168701  0.19091803  0.15102388     0.29800
C1661       C  0.81261962  0.23772190  0.18897517    -0.06400
C1662       C  0.87177620  0.21342128  0.19975998    -0.07200
C1663       C  0.81766420  0.18111607  0.21071070    -0.07100
C1664       C  0.81292354  0.22456344  0.15623389    -0.06400
C1665       C  0.87140824  0.19933369  0.16634967    -0.07200
C1666       C  0.81684725  0.16796758  0.17782225    -0.07100
C1667       C  0.81758017  0.25177749  0.13600241    -0.32500
N1668       N  0.81836473  0.28057179  0.15437476     0.14000
C1669       C  0.81656051  0.27226567  0.18657840    -0.32500
H1670       H  0.82466708  0.28929324  0.20694657     0.16000
C1671       C  0.90808569  0.19652861  0.15686086    -0.31400
N1672       N  0.93102703  0.20855839  0.18222579     0.12800
C1673       C  0.90928263  0.21906932  0.20822790    -0.31400
C1674       C  0.82409364  0.13386592  0.18024194    -0.31700
N1675       N  0.82823366  0.12532235  0.21255690     0.13300
H1676       H  0.83067587  0.11712269  0.15946621     0.15900
C1677       C  0.82751091  0.15442623  0.23059523    -0.31700
H1678       H  0.83943200  0.15660096  0.25560562     0.15900
H1679       H  0.92003016  0.22928845  0.23188090     0.15900
H1680       H  0.82871744  0.25011760  0.11141359     0.16000
H1681       H  0.91740676  0.18657470  0.13308145     0.15900
C1682       C  0.81166604  0.36552429  0.11295461     0.86300
C1683       C  0.77971144  0.37734735  0.13471734    -0.54000
C1684       C  0.75623830  0.35239919  0.14226938     0.09200
C1685       C  0.76781620  0.31669805  0.12868988     0.20200
C1686       C  0.83058632  0.33724861  0.13356023    -0.54700
C1687       C  0.80700496  0.31215268  0.14147702     0.09300
C1688       C  0.79439144  0.34520655  0.08207267    -0.54200
C1689       C  0.77183110  0.31894881  0.09071406     0.09900
H1690       H  0.77729399  0.40276611  0.14519828     0.14400
H1691       H  0.74974348  0.29532546  0.13579960     0.00100
H1692       H  0.85958660  0.33477990  0.13954818     0.14700
H1693       H  0.80166778  0.34966215  0.05630012     0.14500
C1694       C  0.80268174  0.04678293  0.25913025     0.86300
C1695       C  0.77124362  0.03637739  0.23502247    -0.54000
C1696       C  0.75310457  0.06255077  0.22162869     0.09200
C1697       C  0.76919431  0.09772881  0.23290684     0.20200
C1698       C  0.82838200  0.07010469  0.23960109    -0.54700
C1699       C  0.81022830  0.09624794  0.22521147     0.09300
C1700       C  0.78562642  0.07178577  0.28540800    -0.54200
C1701       C  0.76869632  0.09895890  0.27134258     0.09900
H1702       H  0.76435637  0.01023677  0.22977518     0.14400
H1703       H  0.75501380  0.11972753  0.22158191     0.00100
H1704       H  0.85816188  0.06944279  0.24107507     0.14700
H1705       H  0.78852248  0.06935076  0.31238426     0.14500
C1706       C  0.66216250  0.34125173  0.20001124     0.29800
C1707       C  0.72300275  0.35630653  0.16417932     0.29800
C1708       C  0.66295891  0.32604660  0.16489548    -0.06400
C1709       C  0.66832727  0.38177316  0.19204371    -0.07200
C1710       C  0.70030262  0.32977471  0.21487120    -0.07100
C1711       C  0.69349071  0.33421779  0.14686816    -0.06400
C1712       C  0.70002569  0.38814459  0.17296983    -0.07200
C1713       C  0.73070658  0.34109092  0.19859257    -0.07100
C1714       C  0.68330836  0.33260814  0.11352514    -0.32500
N1715       N  0.64864575  0.32101014  0.11035910     0.14000
C1716       C  0.63526246  0.31921624  0.14164111    -0.32500
H1717       H  0.60673017  0.31860689  0.14745331     0.16000
C1718       C  0.70097855  0.42229212  0.16466766    -0.31400
N1719       N  0.67155856  0.43921630  0.17740076     0.12800
C1720       C  0.65194874  0.41495878  0.19481655    -0.31400
C1721       C  0.76182336  0.32678716  0.21317734    -0.31700
N1722       N  0.75175000  0.30156902  0.23374189     0.13300
H1723       H  0.78975861  0.33372392  0.20766112     0.15900
C1724       C  0.71416179  0.30118459  0.23110305    -0.31700
H1725       H  0.69826087  0.27896467  0.23483356     0.15900
H1726       H  0.62766972  0.42078296  0.20895626     0.15900
H1727       H  0.69898593  0.34266804  0.09342161     0.16000
H1728       H  0.72245950  0.43436441  0.15082205     0.15900
C1729       C  0.59871834  0.29822054  0.02766166     0.86300
C1730       C  0.57329494  0.27441342  0.04761073    -0.54000
C1731       C  0.59161972  0.25877043  0.07304005     0.09200
C1732       C  0.63275485  0.26683763  0.07513037     0.20200
C1733       C  0.61621226  0.32177374  0.05583366    -0.54700
C1734       C  0.63356781  0.30496914  0.08045660     0.09300
C1735       C  0.62965968  0.27580175  0.01468090    -0.54200
C1736       C  0.64767302  0.25947509  0.03928170     0.09900
H1737       H  0.54369834  0.27263065  0.04508779     0.14400
H1738       H  0.64746822  0.25367796  0.09577695     0.00100
H1739       H  0.61354723  0.34908019  0.05739200     0.14700
H1740       H  0.63718989  0.27409960  0.98860133     0.14500
C1741       C  0.82787567  0.27262955  0.29671649     0.86300
C1742       C  0.84390807  0.24748129  0.27146053    -0.54000
C1743       C  0.81907597  0.23231577  0.25041617     0.09200
C1744       C  0.77745534  0.24232001  0.25997855     0.20200
C1745       C  0.80375164  0.29720041  0.27539596    -0.54700
C1746       C  0.77657957  0.28177661  0.25588922     0.09300
C1747       C  0.79961464  0.25377301  0.31757947    -0.54200
C1748       C  0.77296587  0.23753499  0.29972635     0.09900
H1749       H  0.87330276  0.24523230  0.26803280     0.14400
H1750       H  0.75605045  0.22892606  0.24427398     0.00100
H1751       H  0.80700255  0.32453095  0.27613208     0.14700
H1752       H  0.79980618  0.25437233  0.34479618     0.14500
C1753       C  0.74151724  0.19890408  0.04798499     0.29800
C1754       C  0.68116372  0.23766187  0.03513119     0.29800
C1755       C  0.74323239  0.23595791  0.06139232    -0.06400
C1756       C  0.73246669  0.20473289  0.00829787    -0.07200
C1757       C  0.70403037  0.18521706  0.05974043    -0.07100
C1758       C  0.71255039  0.25509368  0.05476856    -0.06400
C1759       C  0.70079947  0.22498391  0.00244872    -0.07200
C1760       C  0.67433531  0.20497495  0.05336649    -0.07100
C1761       C  0.72257113  0.28888215  0.05786176    -0.32500
N1762       N  0.75820364  0.29181975  0.06811028     0.14000
C1763       C  0.77145437  0.25950940  0.06750602    -0.32500
H1764       H  0.80022673  0.25365030  0.06676170     0.16000
C1765       C  0.69563486  0.22788850  0.46760375    -0.31400
N1766       N  0.72275452  0.21127569  0.45071479     0.12800
C1767       C  0.74498597  0.19666650  0.47521291    -0.31400
C1768       C  0.64354190  0.18879167  0.06496704    -0.31700
N1769       N  0.65335251  0.16039530  0.08122028     0.13300
H1770       H  0.61586927  0.19605206  0.05899241     0.15900
C1771       C  0.68972843  0.15606149  0.07371811    -0.31700
H1772       H  0.70446666  0.13259414  0.07557155     0.15900
H1773       H  0.76816679  0.18063083  0.46961136     0.15900
H1774       H  0.70539887  0.30983982  0.05073800     0.16000
H1775       H  0.67314572  0.24077992  0.45523504     0.15900
C1776       C  0.74114196  0.21837159  0.31741501     0.29800
C1777       C  0.68038252  0.17924006  0.32887424     0.29800
C1778       C  0.74158148  0.18164945  0.30405439    -0.06400
C1779       C  0.73244219  0.21240745  0.35711562    -0.07200
C1780       C  0.70387598  0.23200753  0.30458101    -0.07100
C1781       C  0.71181219  0.16203081  0.31104426    -0.06400
C1782       C  0.70038446  0.19215867  0.36198541    -0.07200
C1783       C  0.67382816  0.21224461  0.31016481    -0.07100
C1784       C  0.72079990  0.12870038  0.30446069    -0.32500
N1785       N  0.75419500  0.12755313  0.29022752     0.14000
C1786       C  0.76756094  0.15990163  0.29119933    -0.32500
H1787       H  0.79490411  0.16738057  0.28561295     0.16000
C1788       C  0.69534233  0.18902582  0.39650374    -0.31400
N1789       N  0.72271787  0.20569579  0.41446124     0.12800
C1790       C  0.74517558  0.22029633  0.39083419    -0.31400
C1791       C  0.64322172  0.22924377  0.29813880    -0.31700
N1792       N  0.65362908  0.25762918  0.28205527     0.13300
H1793       H  0.61536303  0.22239690  0.30353483     0.15900
C1794       C  0.69023224  0.26142191  0.29055550    -0.31700
H1795       H  0.70572177  0.28469103  0.28937478     0.15900
H1796       H  0.76864965  0.23630334  0.39740390     0.15900
H1797       H  0.70449465  0.10707126  0.31106644     0.16000
H1798       H  0.67276847  0.17584796  0.40781451     0.15900
N1799       N  0.98922957  0.02893865  0.43426989    -0.06300
N1800       N  0.98333013  0.05269668  0.45761549    -0.58500
N1801       N  0.52076885  0.47312321  0.37629128    -0.06000
N1802       N  0.54810894  0.48164683  0.35715480    -0.60600
N1803       N  0.99015867  0.98669020  0.36516090    -0.05600
N1804       N  0.99622109  0.00284631  0.33753202    -0.58400
N1805       N  0.52008727  0.51315086  0.44173168    -0.05300
N1806       N  0.53603167  0.52629732  0.46885089    -0.60900
C1807       C  0.51296348  0.05067057  0.97895296     0.95800
C1808       C  0.53321204  0.00441465  0.33602964     0.95600
N1809       N  0.00791646  0.38671661  0.42658713    -0.06500
N1810       N  0.00483062  0.36154130  0.40397144    -0.59000
N1811       N  0.53297344  0.44856953  0.48006591    -0.04600
N1812       N  0.56419552  0.44273831  0.49616666    -0.60300
N1813       N  0.00585769  0.43423968  0.49542741    -0.06500
N1814       N  0.01775521  0.42341904  0.52448451    -0.59300
N1815       N  0.53218960  0.40872264  0.41632124    -0.04300
N1816       N  0.54697658  0.39859518  0.38832168    -0.60400
Mn1817     Mn  0.52757846  0.46096459  0.42838805     1.18400
C1818       C  0.52947860  0.36950239  0.38018923     0.97900
C1819       C  0.55428619  0.42148854  0.02053871     0.98600
N1820       N  0.90799640  0.97416117  0.36825541    -0.06600
N1821       N  0.90316735  0.97333339  0.33550035    -0.62900
N1822       N  0.88242856  0.49754973  0.44426015    -0.05400
N1823       N  0.86074240  0.51222867  0.46589408    -0.63500
N1824       N  0.90517469  0.01959450  0.43205335    -0.06100
N1825       N  0.89987453  0.04998825  0.44522479    -0.63100
N1826       N  0.88595478  0.45225243  0.38178713    -0.05000
N1827       N  0.86549709  0.93636239  0.35875396    -0.63800
Mn1828     Mn  0.94797578  0.00383606  0.39892833     1.10700
C1829       C  0.87562744  0.95042766  0.32980424     0.99100
C1830       C  0.87177364  0.04481414  0.96600472     0.99200
N1831       N  0.92560426  0.42150115  0.49948605    -0.06100
N1832       N  0.92882167  0.42595200  0.53222740    -0.61500
N1833       N  0.89598421  0.39048216  0.42489169    -0.05400
N1834       N  0.87875071  0.37224071  0.40142134    -0.58200
N1835       N  0.92542766  0.37477772  0.43578792    -0.06700
N1836       N  0.92891716  0.34530948  0.41998036    -0.61000
N1837       N  0.89654152  0.43726662  0.48795497    -0.05700
N1838       N  0.87958592  0.45292863  0.51247820    -0.58200
Mn1839     Mn  0.96691501  0.40256436  0.46538376     1.20200
Mn1840     Mn  0.88829655  0.44401067  0.43483909     1.10100
Cl1841     Cl  0.95746749  0.45270121  0.43162416    -0.86200
C1842       C  0.89949965  0.44523368  0.04034253     0.96200
C1843       C  0.89948689  0.34418083  0.39874110     0.96000
C1844       C  0.89068759  0.28832572  0.37246823    -0.26500
C1845       C  0.89751875  0.32272971  0.36873472    -0.14600
C1846       C  0.89346912  0.33715925  0.33682026     0.36000
C1847       C  0.87270321  0.31982684  0.31217722    -0.26000
C1848       C  0.85832289  0.28775846  0.31865983    -0.15200
C1849       C  0.87285974  0.26990530  0.34649839     0.37100
N1850       N  0.86714208  0.23399029  0.34929834    -0.89500
H1851       H  0.89648903  0.27659823  0.39631434     0.18200
H1852       H  0.86721358  0.33187209  0.28848677     0.18200
N1853       N  0.90986404  0.36904945  0.32884074    -0.88500
H1854       H  0.87881944  0.22538179  0.37172544     0.35600
H1855       H  0.88137438  0.22204622  0.32992064     0.40700
H1856       H  0.92446234  0.37966419  0.34936417     0.40300
H1857       H  0.88852577  0.38538087  0.32229128     0.35200
C1858       C  0.60661468  0.34468931  0.98967425    -0.26500
C1859       C  0.58239716  0.31912295  0.00009490    -0.14600
C1860       C  0.54561628  0.32764319  0.00301958     0.36000
C1861       C  0.53768129  0.36036412  0.01309899    -0.26000
C1862       C  0.56549108  0.38600556  0.01411445    -0.15200
C1863       C  0.59985879  0.37830532  0.99998682     0.37100
N1864       N  0.62822099  0.40377271  0.49838525    -0.89500
H1865       H  0.63438588  0.33795142  0.98294047     0.18200
H1866       H  0.50922640  0.36530998  0.01891094     0.18200
N1867       N  0.51681762  0.30316961  0.99679187    -0.88500
H1868       H  0.65188609  0.39363238  0.48774517     0.35600
H1869       H  0.63549500  0.41110365  0.52303228     0.40700
H1870       H  0.50052863  0.31168659  0.97677439     0.40300
H1871       H  0.50003957  0.30281522  0.01775239     0.35200
C1872       C  0.86065172  0.96716968  0.27301856    -0.26500
C1873       C  0.84794499  0.95856174  0.30448040    -0.14600
C1874       C  0.81464567  0.97214358  0.31560030     0.36000
C1875       C  0.80061897  0.00046885  0.29998636    -0.26000
C1876       C  0.81899346  0.01496254  0.27314007    -0.15200
C1877       C  0.84559439  0.99469701  0.25643617     0.37100
N1878       N  0.85726394  0.00037683  0.22293835    -0.89500
H1879       H  0.88481906  0.95489567  0.26307739     0.18200
H1880       H  0.77579788  0.01163713  0.30972774     0.18200
N1881       N  0.79719690  0.95966808  0.34476050    -0.88500
H1882       H  0.87508781  0.02108303  0.22250003     0.35600
H1883       H  0.83423568  0.00402013  0.20722131     0.40700
H1884       H  0.77017323  0.95270037  0.33796864     0.40300
H1885       H  0.79612573  0.97945474  0.36260203     0.35200
C1886       C  0.87328260  0.39711199  0.11208153    -0.26500
C1887       C  0.83526114  0.39567005  0.10360924    -0.14600
C1888       C  0.81989520  0.42321938  0.08555631     0.36000
C1889       C  0.84324136  0.44694405  0.07200569    -0.26000
C1890       C  0.88112836  0.44123120  0.07228193    -0.15200
C1891       C  0.89654438  0.41973111  0.09625890     0.37100
N1892       N  0.93584921  0.41838891  0.60145481    -0.89500
H1893       H  0.88599821  0.37972195  0.12906594     0.18200
H1894       H  0.83132898  0.46594799  0.05587144     0.18200
N1895       N  0.78126929  0.42688845  0.07818100    -0.88500
H1896       H  0.94287338  0.40024026  0.61924217     0.35600
H1897       H  0.94442340  0.44182859  0.61154509     0.40700
H1898       H  0.76710989  0.43219574  0.10006868     0.40300
H1899       H  0.77068443  0.40508200  0.06616296     0.35200
C1900       C  0.52320592  0.06589747  0.33048419    -0.26500
C1901       C  0.54723292  0.03963732  0.34003932    -0.14600
C1902       C  0.57779310  0.04815497  0.36172946     0.36000
C1903       C  0.58481594  0.08221216  0.37038866    -0.26000
C1904       C  0.56632176  0.10735599  0.35246734    -0.15200
C1905       C  0.53087372  0.09921935  0.34017578     0.37100
N1906       N  0.50292727  0.12454544  0.33782553    -0.89500
H1907       H  0.49719744  0.06053984  0.31748928     0.18200
H1908       H  0.61041207  0.08839061  0.38373196     0.18200
N1909       N  0.60299773  0.02300109  0.37339410    -0.88500
H1910       H  0.48151516  0.11750834  0.35334943     0.35600
H1911       H  0.49228779  0.12425830  0.31321741     0.40700
H1912       H  0.60387318  0.02426027  0.39961633     0.40300
H1913       H  0.62921499  0.02908205  0.36494388     0.35200
C1914       C  0.81246825  0.08958876  0.02634153    -0.26500
C1915       C  0.83752648  0.11133300  0.04409968    -0.14600
C1916       C  0.87445686  0.11302684  0.03364682     0.36000
C1917       C  0.88546888  0.09126314  0.00736727    -0.26000
C1918       C  0.86002672  0.06909000  0.99119472    -0.15200
C1919       C  0.82331437  0.06858656  0.00049025     0.37100
N1920       N  0.79660903  0.04724567  0.98315050    -0.89500
H1921       H  0.78339631  0.08953185  0.03193880     0.18200
H1922       H  0.91384632  0.09151172  0.99954454     0.18200
N1923       N  0.90009994  0.13722676  0.04832790    -0.88500
H1924       H  0.77585739  0.56276428  0.97320911     0.35600
H1925       H  0.78482512  0.53144021  0.00045000     0.40700
H1926       H  0.89114362  0.16129955  0.04157493     0.40300
H1927       H  0.92617785  0.13418667  0.03811663     0.35200
C1928       C  0.53005966  0.31451187  0.30175896    -0.26500
C1929       C  0.54936902  0.33665178  0.28070438    -0.14600
C1930       C  0.54806274  0.37162407  0.28832419     0.36000
C1931       C  0.53774998  0.38218514  0.32037303    -0.26000
C1932       C  0.52722644  0.35863510  0.34446528    -0.15200
C1933       C  0.51942310  0.32517962  0.33398207     0.37100
N1934       N  0.50389544  0.30166818  0.35678075    -0.89500
H1935       H  0.52814235  0.28777895  0.29507895     0.18200
H1936       H  0.54008552  0.40892785  0.32692855     0.18200
N1937       N  0.55721040  0.39655289  0.26437405    -0.88500
H1938       H  0.50084178  0.27772767  0.34524013     0.35600
H1939       H  0.47732487  0.30997287  0.36197389     0.40700
H1940       H  0.53431762  0.41210849  0.26082958     0.40600
H1941       H  0.57869903  0.41160985  0.27454669     0.35200
C1942       C  0.54039998  0.05154132  0.07010339    -0.26500
C1943       C  0.54435816  0.08641991  0.07580069    -0.14600
C1944       C  0.52573324  0.10861348  0.05338898     0.36000
C1945       C  0.51110730  0.09605688  0.02269428    -0.26000
C1946       C  0.51373972  0.06173044  0.01453638    -0.15200
C1947       C  0.52511402  0.03908940  0.03971249     0.37100
N1948       N  0.52308924  0.00329903  0.53382936    -0.89500
H1949       H  0.55145128  0.03363516  0.08769181     0.18200
H1950       H  0.50105992  0.11357801  0.00410061     0.18200
N1951       N  0.52485276  0.14439251  0.06020401    -0.88500
H1952       H  0.50646135  0.99301404  0.55212543     0.35600
H1953       H  0.54962721  0.99372497  0.53737471     0.40700
H1954       H  0.49729427  0.15188955  0.06021814     0.40300
H1955       H  0.53784125  0.15673657  0.04075477     0.35200
C1956       C  0.57324088  0.10081304  0.60069754     0.86300
C1957       C  0.59769959  0.07708231  0.62291847    -0.54000
C1958       C  0.62446745  0.09361558  0.64203877     0.09200
C1959       C  0.62214913  0.13380644  0.63706020     0.20200
C1960       C  0.55623411  0.12651392  0.62529676    -0.54700
C1961       C  0.58074140  0.14530103  0.64381491     0.09300
C1962       C  0.60153142  0.12049164  0.58023976    -0.54200
C1963       C  0.62753466  0.13784946  0.59817534     0.09900
H1964       H  0.59585157  0.04970173  0.62236412     0.14400
H1965       H  0.64187283  0.14887564  0.65298183     0.00100
H1966       H  0.52695659  0.13160437  0.62546026     0.14700
H1967       H  0.60066769  0.12112862  0.55300250     0.14500
C1968       C  0.56954347  0.17949516  0.66210521     0.29800
C1969       C  0.57030244  0.24271515  0.69345660     0.29800
C1970       C  0.58461815  0.20851099  0.64229642    -0.06400
C1971       C  0.52983420  0.19402813  0.67097659    -0.07200
C1972       C  0.58882701  0.18223975  0.69592345    -0.07100
C1973       C  0.58423871  0.24091359  0.65748688    -0.06400
C1974       C  0.53034375  0.22646818  0.68783037    -0.07200
C1975       C  0.58921630  0.21426149  0.71159639    -0.07100
C1976       C  0.57492952  0.26215582  0.63142499    -0.32500
N1977       N  0.57396634  0.24522326  0.60157595     0.14000
C1978       C  0.57743332  0.21241079  0.60870376    -0.32500
H1979       H  0.57018468  0.19208683  0.59118317     0.16000
C1980       C  0.99346840  0.23440861  0.69422465    -0.31400
N1981       N  0.97069110  0.20907479  0.68167031     0.12800
C1982       C  0.99254517  0.18467930  0.66740535    -0.31400
C1983       C  0.58541639  0.20911960  0.74519674    -0.31700
N1984       N  0.58403587  0.17600256  0.75087023     0.13300
H1985       H  0.57708156  0.22822621  0.76318283     0.15900
C1986       C  0.58434010  0.15963776  0.72109644    -0.31700
H1987       H  0.57263859  0.13481336  0.71741850     0.15900
H1988       H  0.98204604  0.16156404  0.65556964     0.15900
H1989       H  0.56284813  0.28689774  0.63438852     0.16000
H1990       H  0.98378810  0.25729755  0.70638421     0.15900
C1991       C  0.57744072  0.32036506  0.75740577     0.86300
C1992       C  0.60423208  0.34244705  0.73681853    -0.54000
C1993       C  0.62977085  0.32452214  0.71942385     0.09200
C1994       C  0.62483672  0.28488196  0.72407049     0.20200
C1995       C  0.55920887  0.29527594  0.73169600    -0.54700
C1996       C  0.58289603  0.27585336  0.71389050     0.09300
C1997       C  0.60361331  0.29907398  0.77961362    -0.54200
C1998       C  0.62881723  0.28048486  0.76335898     0.09900
H1999       H  0.60526157  0.36967155  0.73684383     0.14400
H2000       H  0.64435521  0.26916051  0.70964643     0.00100
H2001       H  0.52966597  0.29155288  0.72988944     0.14700
H2002       H  0.60222492  0.29867459  0.80679675     0.14500
C2003       C  0.65674127  0.07529476  0.66248070     0.29800
C2004       C  0.71861894  0.05995073  0.69966267     0.29800
C2005       C  0.65809933  0.08896988  0.69842762    -0.06400
C2006       C  0.66369833  0.03431728  0.66916482    -0.07200
C2007       C  0.69478191  0.08775330  0.64949997    -0.07100
C2008       C  0.68968190  0.08158533  0.71690356    -0.06400
C2009       C  0.69584305  0.02818169  0.68917194    -0.07200
C2010       C  0.72536384  0.07589149  0.66612114    -0.07100
C2011       C  0.68049277  0.08231128  0.75012624    -0.32500
N2012       N  0.64515439  0.09154971  0.75307126     0.14000
C2013       C  0.63072910  0.09284778  0.72152370    -0.32500
H2014       H  0.60180437  0.09066590  0.71563295     0.16000
C2015       C  0.69881268  0.49379234  0.69554090    -0.31400
N2016       N  0.67067970  0.47607373  0.68062798     0.12800
C2017       C  0.64931627  0.00013917  0.66385903    -0.31400
C2018       C  0.75628763  0.09050286  0.65322728    -0.31700
N2019       N  0.74628181  0.11660003  0.63375197     0.13300
H2020       H  0.78402005  0.08225266  0.65820834     0.15900
C2021       C  0.70885976  0.11688259  0.63478172    -0.31700
H2022       H  0.69361928  0.13918614  0.63037278     0.15900
H2023       H  0.62531565  0.49367309  0.64843240     0.15900
H2024       H  0.69718241  0.07230923  0.77020206     0.16000
H2025       H  0.72048427  0.48155957  0.70943363     0.15900
C2026       C  0.81965816  0.13510340  0.56899726     0.86300
C2027       C  0.84147434  0.15735313  0.59530255    -0.54000
C2028       C  0.81933500  0.17650812  0.61557398     0.09200
C2029       C  0.77672937  0.17208394  0.60546051     0.20200
C2030       C  0.79331018  0.11478762  0.59101283    -0.54700
C2031       C  0.77026911  0.13339844  0.61001171     0.09300
C2032       C  0.79586788  0.15937011  0.54843280    -0.54200
C2033       C  0.77232465  0.17812906  0.56599087     0.09900
H2034       H  0.87049060  0.15433669  0.60111364     0.14400
H2035       H  0.75803258  0.18774643  0.62091883     0.00100
H2036       H  0.79353252  0.08728930  0.59197707     0.14700
H2037       H  0.79595524  0.15974131  0.52122228     0.14500
C2038       C  0.59121846  0.12421774  0.82816591     0.86300
C2039       C  0.57284270  0.14964648  0.80419363    -0.54000
C2040       C  0.59620701  0.16114929  0.78117279     0.09200
C2041       C  0.63547310  0.14853519  0.78497635     0.20200
C2042       C  0.60833995  0.09719180  0.80389508    -0.54700
C2043       C  0.63144288  0.11026597  0.78151603     0.09300
C2044       C  0.62391178  0.14382207  0.84489287    -0.54200
C2045       C  0.64693734  0.15689050  0.82223407     0.09900
H2046       H  0.54406321  0.15619358  0.80297387     0.14400
H2047       H  0.65389877  0.15911648  0.76589735     0.00100
H2048       H  0.60107895  0.07051983  0.80286903     0.14700
H2049       H  0.62771163  0.14763723  0.87175018     0.14500
C2050       C  0.83168857  0.21708744  0.71561827     0.29800
C2051       C  0.83168927  0.19091318  0.65102321     0.29800
C2052       C  0.81261910  0.23771540  0.68897538    -0.06400
C2053       C  0.87177720  0.21341822  0.69975913    -0.07200
C2054       C  0.81766722  0.18111000  0.71070980    -0.07100
C2055       C  0.81292356  0.22455762  0.65623370    -0.06400
C2056       C  0.87140984  0.19933106  0.66634864    -0.07200
C2057       C  0.81685073  0.16796171  0.67782148    -0.07100
C2058       C  0.81757855  0.25177251  0.63600294    -0.32500
N2059       N  0.81836163  0.28056610  0.65437635     0.14000
C2060       C  0.81655869  0.27225917  0.68657959    -0.32500
H2061       H  0.82466702  0.28928605  0.70694773     0.16000
C2062       C  0.90808713  0.19652910  0.65685888    -0.31400
N2063       N  0.93102789  0.20855997  0.68222361     0.12800
C2064       C  0.90928329  0.21906934  0.70822615    -0.31400
C2065       C  0.82409575  0.13385972  0.68024152    -0.31700
N2066       N  0.82823416  0.12531622  0.71255690     0.13300
H2067       H  0.83067749  0.11711607  0.65946601     0.15900
C2068       C  0.82751292  0.15442037  0.73059473    -0.31700
H2069       H  0.83942982  0.15659446  0.75560685     0.15900
H2070       H  0.92003054  0.22928934  0.73187889     0.15900
H2071       H  0.82871706  0.25011387  0.61141462     0.16000
H2072       H  0.91740857  0.18657633  0.63307914     0.15900
C2073       C  0.81167303  0.36551996  0.61295894     0.86300
C2074       C  0.77971955  0.37734577  0.63472148    -0.54000
C2075       C  0.75624327  0.35239997  0.64227187     0.09200
C2076       C  0.76781748  0.31669750  0.62869188     0.20200
C2077       C  0.83058922  0.33724265  0.63356544    -0.54700
C2078       C  0.80700508  0.31214836  0.64148004     0.09300
C2079       C  0.79439749  0.34520436  0.58207623    -0.54200
C2080       C  0.77183499  0.31894798  0.59071644     0.09900
H2081       H  0.77730587  0.40276358  0.64520555     0.14400
H2082       H  0.74974210  0.29532648  0.63580076     0.00100
H2083       H  0.85958810  0.33477221  0.63955803     0.14700
H2084       H  0.80167524  0.34965998  0.55630404     0.14500
C2085       C  0.80267262  0.04678326  0.75913700     0.86300
C2086       C  0.77123670  0.03637555  0.73502735    -0.54000
C2087       C  0.75310188  0.06254767  0.72162693     0.09200
C2088       C  0.76919091  0.09772667  0.73290331     0.20200
C2089       C  0.82837660  0.07010193  0.73960792    -0.54700
C2090       C  0.81022587  0.09624365  0.72521238     0.09300
C2091       C  0.78561515  0.07178952  0.78540967    -0.54200
C2092       C  0.76868755  0.09896076  0.77133924     0.09900
H2093       H  0.76434572  0.01023461  0.72978512     0.14400
H2094       H  0.75501251  0.11972449  0.72157452     0.00100
H2095       H  0.85815644  0.06943870  0.74108527     0.14700
H2096       H  0.78850863  0.06935909  0.81238661     0.14500
C2097       C  0.66216815  0.34125399  0.70001304     0.29800
C2098       C  0.72300901  0.35631018  0.66418257     0.29800
C2099       C  0.66296364  0.32605358  0.66489572    -0.06400
C2100       C  0.66833583  0.38177633  0.69205101    -0.07200
C2101       C  0.70030731  0.32977202  0.71487080    -0.07100
C2102       C  0.69349461  0.33422657  0.64686902    -0.06400
C2103       C  0.70003502  0.38814891  0.67297841    -0.07200
C2104       C  0.73071174  0.34108886  0.69859342    -0.07100
C2105       C  0.68331392  0.33261448  0.61352587    -0.32500
N2106       N  0.64865373  0.32101006  0.61036010     0.14000
C2107       C  0.63526898  0.31921746  0.64164169    -0.32500
H2108       H  0.60673692  0.31860289  0.64745351     0.16000
C2109       C  0.70098845  0.42229743  0.66467939    -0.31400
N2110       N  0.67156689  0.43922021  0.67741165     0.12800
C2111       C  0.65195654  0.41496149  0.69482514    -0.31400
C2112       C  0.76182766  0.32678263  0.71317691    -0.31700
N2113       N  0.75175298  0.30156279  0.73373899     0.13300
H2114       H  0.78976326  0.33371988  0.70766238     0.15900
C2115       C  0.71416493  0.30117970  0.73110017    -0.31700
H2116       H  0.69826311  0.27896047  0.73483167     0.15900
H2117       H  0.62767585  0.42078439  0.70896294     0.15900
H2118       H  0.69899186  0.34267275  0.59342168     0.16000
H2119       H  0.72246979  0.43437071  0.65083500     0.15900
C2120       C  0.59873176  0.29822321  0.52766091     0.86300
C2121       C  0.57330593  0.27441593  0.54760849    -0.54000
C2122       C  0.59162872  0.25877104  0.57303820     0.09200
C2123       C  0.63276387  0.26683719  0.57513000     0.20200
C2124       C  0.61622471  0.32177440  0.55583445    -0.54700
C2125       C  0.63357770  0.30496877  0.58045731     0.09300
C2126       C  0.62967230  0.27580414  0.51468049    -0.54200
C2127       C  0.64768265  0.25947505  0.53928121     0.09900
H2128       H  0.54370929  0.27263502  0.54508454     0.14400
H2129       H  0.64747613  0.25367663  0.59577662     0.00100
H2130       H  0.61356056  0.34908077  0.55739466     0.14700
H2131       H  0.63720446  0.27410376  0.48860135     0.14500
C2132       C  0.82787560  0.27262244  0.79671597     0.86300
C2133       C  0.84390773  0.24747223  0.77146191    -0.54000
C2134       C  0.81907567  0.23230813  0.75041654     0.09200
C2135       C  0.77745477  0.24231394  0.75997797     0.20200
C2136       C  0.80375283  0.29719313  0.77539391    -0.54700
C2137       C  0.77658091  0.28176995  0.75588715     0.09300
C2138       C  0.79961347  0.25376809  0.81757937    -0.54200
C2139       C  0.77296345  0.23753164  0.79972629     0.09900
H2140       H  0.87330249  0.24522144  0.76803555     0.14400
H2141       H  0.75604967  0.22892020  0.74427342     0.00100
H2142       H  0.80700411  0.32452362  0.77612939     0.14700
H2143       H  0.79980409  0.25436886  0.84479603     0.14500
C2144       C  0.74152470  0.19890266  0.54798345     0.29800
C2145       C  0.68117209  0.23766105  0.53513050     0.29800
C2146       C  0.74324047  0.23595650  0.56139130    -0.06400
C2147       C  0.73247429  0.20473178  0.50829652    -0.07200
C2148       C  0.70403764  0.18521578  0.55973850    -0.07100
C2149       C  0.71255822  0.25509195  0.55476844    -0.06400
C2150       C  0.70080763  0.22498352  0.50244775    -0.07200
C2151       C  0.67434312  0.20497429  0.55336520    -0.07100
C2152       C  0.72257672  0.28888046  0.55786444    -0.32500
N2153       N  0.75820907  0.29181887  0.56811216     0.14000
C2154       C  0.77146162  0.25950903  0.56750547    -0.32500
H2155       H  0.80023436  0.25365146  0.56675942     0.16000
C2156       C  0.69562732  0.22788908  0.96760464    -0.31400
N2157       N  0.72274791  0.21127732  0.95071588     0.12800
C2158       C  0.74497950  0.19666869  0.97521433    -0.31400
C2159       C  0.64354964  0.18879227  0.56496648    -0.31700
N2160       N  0.65335956  0.16039585  0.58121969     0.13300
H2161       H  0.61587728  0.19605323  0.55899181     0.15900
C2162       C  0.68973491  0.15606054  0.57371597    -0.31700
H2163       H  0.70447193  0.13259240  0.57556755     0.15900
H2164       H  0.76816142  0.18063429  0.96961309     0.15900
H2165       H  0.70540319  0.30983783  0.55074264     0.16000
H2166       H  0.67313811  0.24078027  0.95523577     0.15900
C2167       C  0.74113715  0.21837176  0.81741538     0.29800
C2168       C  0.68037614  0.17924229  0.82887513     0.29800
C2169       C  0.74157434  0.18165033  0.80405452    -0.06400
C2170       C  0.73243720  0.21240786  0.85711637    -0.07200
C2171       C  0.70387187  0.23200916  0.80458164    -0.07100
C2172       C  0.71180558  0.16203220  0.81104586    -0.06400
C2173       C  0.70037834  0.19216045  0.86198627    -0.07200
C2174       C  0.67382297  0.21224739  0.81016595    -0.07100
C2175       C  0.72079199  0.12870205  0.80445944    -0.32500
N2176       N  0.75418419  0.12755601  0.79022066     0.14000
C2177       C  0.76755041  0.15990406  0.79119230    -0.32500
H2178       H  0.79489133  0.16738392  0.78559955     0.16000
C2179       C  0.69533532  0.18902857  0.89650457    -0.31400
N2180       N  0.72271161  0.20569729  0.91446224     0.12800
C2181       C  0.74517067  0.22029629  0.89083517    -0.31400
C2182       C  0.64321734  0.22924766  0.79813984    -0.31700
N2183       N  0.65362649  0.25763258  0.78205629     0.13300
H2184       H  0.61535818  0.22240128  0.80353484     0.15900
C2185       C  0.69022989  0.26142372  0.79055552    -0.31700
H2186       H  0.70572083  0.28469191  0.78937318     0.15900
H2187       H  0.76864566  0.23630210  0.89740493     0.15900
H2188       H  0.70448761  0.10707253  0.81106594     0.16000
H2189       H  0.67276023  0.17585228  0.90781516     0.15900
N2190       N  0.98920265  0.02894752  0.93426912    -0.06300
N2191       N  0.98329938  0.05269804  0.95762190    -0.58500
N2192       N  0.52076314  0.47313015  0.87628494    -0.06000
N2193       N  0.54810383  0.48165640  0.85715040    -0.60600
N2194       N  0.99013869  0.98670701  0.86515412    -0.05600
N2195       N  0.99619934  0.00287126  0.83752961    -0.58400
N2196       N  0.52008375  0.51316187  0.94172188    -0.05300
N2197       N  0.53603138  0.52631208  0.96883767    -0.60900
C2198       C  0.51296394  0.05068390  0.47894278     0.95800
C2199       C  0.53321332  0.00440328  0.83603339     0.95600
N2200       N  0.00791093  0.38670242  0.92659775    -0.06500
N2201       N  0.00481930  0.36153012  0.90397914    -0.59000
N2202       N  0.53297339  0.44857905  0.98005945    -0.04600
N2203       N  0.56419683  0.44273897  0.99615456    -0.60300
N2204       N  0.00585221  0.43422385  0.99543914    -0.06500
N2205       N  0.01774068  0.42340306  0.02449901    -0.59300
N2206       N  0.53218445  0.40873282  0.91631520    -0.04300
N2207       N  0.54696500  0.39860825  0.88831175    -0.60400
Mn2208     Mn  0.52757450  0.46097404  0.92838160     1.18400
C2209       C  0.52946344  0.36951779  0.88017830     0.97900
C2210       C  0.55428577  0.42148693  0.52055032     0.98600
N2211       N  0.90797762  0.97415487  0.86825551    -0.06600
N2212       N  0.90314435  0.97332847  0.83550094    -0.62900
N2213       N  0.88245021  0.49756194  0.94425859    -0.05400
N2214       N  0.86076113  0.51224632  0.96588614    -0.63500
N2215       N  0.90514955  0.01958649  0.93205413    -0.06100
N2216       N  0.89984786  0.04997787  0.94523012    -0.63100
N2217       N  0.88596990  0.45226333  0.88178688    -0.05000
N2218       N  0.86548260  0.93635117  0.85875640    -0.63800
Mn2219     Mn  0.94795227  0.00383896  0.89892625     1.10700
C2220       C  0.87560718  0.95041971  0.82980630     0.99100
C2221       C  0.87179291  0.04483063  0.46599299     0.99200
N2222       N  0.92559585  0.42150059  0.99948841    -0.06100
N2223       N  0.92880933  0.42594876  0.03223033    -0.61500
N2224       N  0.89598162  0.39049202  0.92488639    -0.05400
N2225       N  0.87875399  0.37225891  0.90140596    -0.58200
N2226       N  0.92541837  0.37478051  0.93578776    -0.06700
N2227       N  0.92890779  0.34531494  0.91997538    -0.61000
N2228       N  0.89653919  0.43727328  0.98795466    -0.05700
N2229       N  0.87958359  0.45293751  0.01247670    -0.58200
Mn2230     Mn  0.96690727  0.40255725  0.96539019     1.20200
Mn2231     Mn  0.88830452  0.44402119  0.93483773     1.10100
Cl2232     Cl  0.95747764  0.45269728  0.93163063    -0.86200
C2233       C  0.89950770  0.44523020  0.54034225     0.96200
C2234       C  0.89948583  0.34419638  0.89872666     0.96000
C2235       C  0.89068587  0.28833648  0.87246614    -0.26500
C2236       C  0.89751509  0.32273980  0.86872429    -0.14600
C2237       C  0.89346457  0.33716163  0.83680632     0.36000
C2238       C  0.87270406  0.31982036  0.81216600    -0.26000
C2239       C  0.85832256  0.28775447  0.81865719    -0.15200
C2240       C  0.87285729  0.26990918  0.84650152     0.37100
N2241       N  0.86713843  0.23399543  0.84931182    -0.89500
H2242       H  0.89648805  0.27661525  0.89631529     0.18200
H2243       H  0.86721676  0.33185833  0.78847137     0.18200
N2244       N  0.90985137  0.36905354  0.82882040    -0.88500
H2245       H  0.87881686  0.22539297  0.87174093     0.35600
H2246       H  0.88136898  0.22204533  0.82993657     0.40700
H2247       H  0.92444912  0.37967424  0.84934114     0.40300
H2248       H  0.88850837  0.38537987  0.82227005     0.35200
C2249       C  0.60663016  0.34469914  0.48968116    -0.26500
C2250       C  0.58241405  0.31912805  0.50009448    -0.14600
C2251       C  0.54563228  0.32764394  0.50301650     0.36000
C2252       C  0.53769311  0.36036069  0.51310604    -0.26000
C2253       C  0.56549882  0.38600606  0.51412662    -0.15200
C2254       C  0.59986887  0.37831273  0.49999938     0.37100
N2255       N  0.62821436  0.40376124  0.99836659    -0.89500
H2256       H  0.63440307  0.33796525  0.48294915     0.18200
H2257       H  0.50923731  0.36530102  0.51891868     0.18200
N2258       N  0.51683717  0.30316939  0.49677725    -0.88500
H2259       H  0.65187726  0.39361593  0.98772692     0.35600
H2260       H  0.63549105  0.41109561  0.02301209     0.40700
H2261       H  0.50055122  0.31169112  0.47675997     0.40300
H2262       H  0.50005475  0.30280712  0.51773464     0.35200
C2263       C  0.86062221  0.96715755  0.77302215    -0.26500
C2264       C  0.84792034  0.95855461  0.80448705    -0.14600
C2265       C  0.81462991  0.97214810  0.81561433     0.36000
C2266       C  0.80061027  0.00047784  0.80000329    -0.26000
C2267       C  0.81898175  0.01496399  0.77315110    -0.15200
C2268       C  0.84557224  0.99469005  0.75644286     0.37100
N2269       N  0.85724198  0.00036939  0.72294497    -0.89500
H2270       H  0.88478293  0.95487611  0.76307650     0.18200
H2271       H  0.77579520  0.01165282  0.80974963     0.18200
N2272       N  0.79718413  0.95967842  0.84477851    -0.88500
H2273       H  0.87506848  0.02107370  0.72250719     0.35600
H2274       H  0.83421410  0.00401609  0.70722832     0.40700
H2275       H  0.77015635  0.95271928  0.83799239     0.40300
H2276       H  0.79612478  0.97946555  0.86262041     0.35200
C2277       C  0.87329530  0.39709509  0.61207400    -0.26500
C2278       C  0.83527117  0.39566284  0.60361259    -0.14600
C2279       C  0.81990598  0.42321695  0.58556619     0.36000
C2280       C  0.84325311  0.44693789  0.57201117    -0.26000
C2281       C  0.88113949  0.44122157  0.57228217    -0.15200
C2282       C  0.89655660  0.41971529  0.59625293     0.37100
N2283       N  0.93583669  0.41840841  0.10146458    -0.89500
H2284       H  0.88601328  0.37969756  0.62904896     0.18200
H2285       H  0.83134044  0.46594500  0.55588076     0.18200
N2286       N  0.78127873  0.42689534  0.57820254    -0.88500
H2287       H  0.94285994  0.40026655  0.11925931     0.35600
H2288       H  0.94440896  0.44185174  0.11154716     0.40700
H2289       H  0.76713020  0.43221378  0.60009391     0.40300
H2290       H  0.77068158  0.40508885  0.56619368     0.35200
C2291       C  0.52320574  0.06588696  0.83048968    -0.26500
C2292       C  0.54723567  0.03962597  0.84003750    -0.14600
C2293       C  0.57780347  0.04814241  0.86171827     0.36000
C2294       C  0.58482705  0.08219879  0.87038006    -0.26000
C2295       C  0.56632727  0.10734419  0.85246524    -0.15200
C2296       C  0.53087680  0.09920870  0.84018007     0.37100
N2297       N  0.50293016  0.12453539  0.83783815    -0.89500
H2298       H  0.49719316  0.06053023  0.81750154     0.18200
H2299       H  0.61042743  0.08837619  0.88371682     0.18200
N2300       N  0.60301565  0.02298813  0.87336868    -0.88500
H2301       H  0.48152292  0.11749788  0.85336728     0.35600
H2302       H  0.49228318  0.12424966  0.81323264     0.40700
H2303       H  0.60390322  0.02424254  0.89959115     0.40300
H2304       H  0.62922791  0.02907260  0.86490947     0.35200
C2305       C  0.81248078  0.08959616  0.52632923    -0.26500
C2306       C  0.83753700  0.11133747  0.54409309    -0.14600
C2307       C  0.87446695  0.11303844  0.53363959     0.36000
C2308       C  0.88548213  0.09128027  0.50735676    -0.26000
C2309       C  0.86004201  0.06910923  0.49117873    -0.15200
C2310       C  0.82332844  0.06860389  0.50047083     0.37100
N2311       N  0.79662396  0.04726942  0.48312185    -0.89500
H2312       H  0.78340878  0.08953561  0.53192625     0.18200
H2313       H  0.91386033  0.09153121  0.49953619     0.18200
N2314       N  0.90010617  0.13724023  0.54832336    -0.88500
H2315       H  0.77583715  0.56273703  0.47323367     0.35600
H2316       H  0.78480739  0.53142399  0.50048616     0.40700
H2317       H  0.89114515  0.16131265  0.54157393     0.40300
H2318       H  0.92618423  0.13420586  0.53811080     0.35200
C2319       C  0.53005859  0.31452243  0.80175317    -0.26500
C2320       C  0.54937079  0.33666105  0.78069945    -0.14600
C2321       C  0.54806291  0.37163433  0.78831703     0.36000
C2322       C  0.53773904  0.38219780  0.82036216    -0.26000
C2323       C  0.52721230  0.35864933  0.84445461    -0.15200
C2324       C  0.51941517  0.32519230  0.83397356     0.37100
N2325       N  0.50388799  0.30168137  0.85677297    -0.89500
H2326       H  0.52814385  0.28778891  0.79507525     0.18200
H2327       H  0.54007195  0.40894103  0.82691635     0.18200
N2328       N  0.55722277  0.39656209  0.76436974    -0.88500
H2329       H  0.50084056  0.27773896  0.84523494     0.35600
H2330       H  0.47731518  0.30998270  0.86196164     0.40700
H2331       H  0.53433308  0.41211972  0.76081732     0.40600
H2332       H  0.57870943  0.41161726  0.77454900     0.35200
C2333       C  0.54040633  0.05154728  0.57009184    -0.26500
C2334       C  0.54436309  0.08642539  0.57579306    -0.14600
C2335       C  0.52573853  0.10862101  0.55338302     0.36000
C2336       C  0.51110968  0.09606671  0.52268836    -0.26000
C2337       C  0.51374172  0.06174089  0.51452723    -0.15200
C2338       C  0.52511990  0.03909793  0.53970028     0.37100
N2339       N  0.52307832  0.00329002  0.03384591    -0.89500
H2340       H  0.55145959  0.03363938  0.58767744     0.18200
H2341       H  0.50106116  0.11358942  0.50409665     0.18200
N2342       N  0.52486170  0.14439991  0.56019940    -0.88500
H2343       H  0.50644634  0.99300986  0.05214164     0.35600
H2344       H  0.54961423  0.99371283  0.03739558     0.40700
H2345       H  0.49730396  0.15189920  0.56021539     0.40300
H2346       H  0.53785007  0.15674362  0.54074989     0.35200
C2347       C  0.57326857  0.60080850  0.10069908     0.86300
C2348       C  0.59773155  0.57708296  0.12291959    -0.54000
C2349       C  0.62449860  0.59361911  0.14203521     0.09200
C2350       C  0.62217418  0.63381083  0.13705501     0.20200
C2351       C  0.55625860  0.62650776  0.12529644    -0.54700
C2352       C  0.58076404  0.64529936  0.14381082     0.09300
C2353       C  0.60155351  0.62049003  0.08023687    -0.54200
C2354       C  0.62755380  0.63785531  0.09816865     0.09900
H2355       H  0.59588811  0.54970240  0.12236889     0.14400
H2356       H  0.64189741  0.64888337  0.15297446     0.00100
H2357       H  0.52698011  0.63159317  0.12546187     0.14700
H2358       H  0.60068737  0.62112391  0.05299954     0.14500
C2359       C  0.56955983  0.67949003  0.16210113     0.29800
C2360       C  0.57031262  0.74270540  0.19345810     0.29800
C2361       C  0.58464799  0.70850496  0.14230154    -0.06400
C2362       C  0.52984713  0.69402735  0.17095839    -0.07200
C2363       C  0.58883104  0.68222919  0.19592406    -0.07100
C2364       C  0.58426518  0.74090617  0.15749429    -0.06400
C2365       C  0.53035444  0.72646597  0.18781475    -0.07200
C2366       C  0.58921252  0.71424656  0.21160312    -0.07100
C2367       C  0.57496507  0.76215042  0.13143209    -0.32500
N2368       N  0.57400780  0.74521861  0.10158327     0.14000
C2369       C  0.57747472  0.71240639  0.10870812    -0.32500
H2370       H  0.57022002  0.69208416  0.09118738     0.16000
C2371       C  0.99347810  0.73441210  0.19419676    -0.31400
N2372       N  0.97070140  0.70908260  0.18163337     0.12800
C2373       C  0.99255652  0.68468442  0.16737403    -0.31400
C2374       C  0.58540997  0.70909455  0.24520229    -0.31700
N2375       N  0.58405149  0.67597356  0.25086800     0.13300
H2376       H  0.57707684  0.72819537  0.26319558     0.15900
C2377       C  0.58435532  0.65961793  0.22108950    -0.31700
H2378       H  0.57267318  0.63478688  0.21740543     0.15900
H2379       H  0.98205722  0.66157097  0.15553487     0.15900
H2380       H  0.56287192  0.78688717  0.13439509     0.16000
H2381       H  0.98379750  0.75730117  0.20635609     0.15900
C2382       C  0.57745601  0.82034110  0.25741666     0.86300
C2383       C  0.60425110  0.84242675  0.23683689    -0.54000
C2384       C  0.62978326  0.82450628  0.21943095     0.09200
C2385       C  0.62484804  0.78486481  0.22406927     0.20200
C2386       C  0.55922065  0.79526172  0.23170043    -0.54700
C2387       C  0.58290644  0.77584035  0.21389222     0.09300
C2388       C  0.60362491  0.79903840  0.27961759    -0.54200
C2389       C  0.62882973  0.78045494  0.26335581     0.09900
H2390       H  0.60528998  0.86965113  0.23687654     0.14400
H2391       H  0.64436506  0.76914640  0.20964016     0.00100
H2392       H  0.52967725  0.79154116  0.22989363     0.14700
H2393       H  0.60223483  0.79862877  0.30680015     0.14500
C2394       C  0.65677410  0.57529478  0.16247134     0.29800
C2395       C  0.71865705  0.55994214  0.19964342     0.29800
C2396       C  0.65813839  0.58896545  0.19841869    -0.06400
C2397       C  0.66372871  0.53431660  0.16915071    -0.07200
C2398       C  0.69481076  0.58775040  0.14948617    -0.07100
C2399       C  0.68972330  0.58157639  0.21689157    -0.06400
C2400       C  0.69587631  0.52817619  0.18915269    -0.07200
C2401       C  0.72539557  0.57588739  0.16610152    -0.07100
C2402       C  0.68052929  0.58228074  0.25011365    -0.32500
N2403       N  0.64518668  0.59150717  0.25306176     0.14000
C2404       C  0.63076610  0.59282409  0.22151465    -0.32500
H2405       H  0.60184210  0.59063916  0.21562094     0.16000
C2406       C  0.69878347  0.99379759  0.19555914    -0.31400
N2407       N  0.67065583  0.97607399  0.18064394     0.12800
C2408       C  0.64934099  0.50014126  0.16384418    -0.31400
C2409       C  0.75631519  0.59049866  0.15319883    -0.31700
N2410       N  0.74630283  0.61659475  0.13372361     0.13300
H2411       H  0.78404890  0.58224822  0.15817232     0.15900
C2412       C  0.70888183  0.61687667  0.13476070    -0.31700
H2413       H  0.69363802  0.63917802  0.13035221     0.15900
H2414       H  0.62529371  0.99366711  0.14844179     0.15900
H2415       H  0.69721939  0.57226880  0.27018450     0.16000
H2416       H  0.72045478  0.98156724  0.20945395     0.15900
C2417       C  0.81966538  0.63511024  0.06896028     0.86300
C2418       C  0.84148187  0.65735689  0.09526828    -0.54000
C2419       C  0.81934315  0.67650826  0.11554427     0.09200
C2420       C  0.77673762  0.67208362  0.10543177     0.20200
C2421       C  0.79332104  0.61478928  0.09097481    -0.54700
C2422       C  0.77028172  0.63339663  0.10997909     0.09300
C2423       C  0.79587115  0.65937728  0.04840110    -0.54200
C2424       C  0.77232985  0.67813476  0.06596274     0.09900
H2425       H  0.87049951  0.65433973  0.10107466     0.14400
H2426       H  0.75804039  0.68774264  0.12089303     0.00100
H2427       H  0.79354760  0.58729102  0.09193792     0.14700
H2428       H  0.79595668  0.65975132  0.02119081     0.14500
C2429       C  0.59127039  0.62418985  0.32816546     0.86300
C2430       C  0.57288560  0.64961545  0.30419569    -0.54000
C2431       C  0.59623824  0.66111267  0.28116321     0.09200
C2432       C  0.63550668  0.64849645  0.28495443     0.20200
C2433       C  0.60838003  0.59715697  0.30389321    -0.54700
C2434       C  0.63147593  0.61022725  0.28150393     0.09300
C2435       C  0.62397092  0.64379197  0.34487587    -0.54200
C2436       C  0.64698672  0.65685313  0.32220724     0.09900
H2437       H  0.54410690  0.65616642  0.30298820     0.14400
H2438       H  0.65392580  0.65907426  0.26586833     0.00100
H2439       H  0.60112110  0.57048456  0.30287721     0.14700
H2440       H  0.62778145  0.64761166  0.37173119     0.14500
C2441       C  0.83170715  0.71707618  0.21559605     0.29800
C2442       C  0.83169823  0.69090890  0.15099597     0.29800
C2443       C  0.81262322  0.73770006  0.18895893    -0.06400
C2444       C  0.87179085  0.71342017  0.19972723    -0.07200
C2445       C  0.81769731  0.68109290  0.21068562    -0.07100
C2446       C  0.81291772  0.72454376  0.15621660    -0.06400
C2447       C  0.87141972  0.69933738  0.16631483    -0.07200
C2448       C  0.81687484  0.66794986  0.17779411    -0.07100
C2449       C  0.81754393  0.75175960  0.13598355    -0.32500
N2450       N  0.81832601  0.78055182  0.15435800     0.14000
C2451       C  0.81654828  0.77224505  0.18656246    -0.32500
H2452       H  0.82466195  0.78927478  0.20692646     0.16000
C2453       C  0.90809633  0.69653939  0.15682137    -0.31400
N2454       N  0.93103849  0.70856892  0.18218579     0.12800
C2455       C  0.90929641  0.71907314  0.20819150    -0.31400
C2456       C  0.82412963  0.63384950  0.18020421    -0.31700
N2457       N  0.82827992  0.62529938  0.21251629     0.13300
H2458       H  0.83070685  0.61711154  0.15942286     0.15900
C2459       C  0.82755771  0.65439985  0.23056146    -0.31700
H2460       H  0.83947499  0.65656859  0.25557370     0.15900
H2461       H  0.92004564  0.72928776  0.23184570     0.15900
H2462       H  0.82866724  0.75010441  0.11139020     0.16000
H2463       H  0.91741631  0.68658715  0.13304089     0.15900
C2464       C  0.81167207  0.86551418  0.11295653     0.86300
C2465       C  0.77972100  0.87734619  0.13471984    -0.54000
C2466       C  0.75623558  0.85240589  0.14226391     0.09200
C2467       C  0.76779792  0.81670234  0.12867680     0.20200
C2468       C  0.83057677  0.83722715  0.13355734    -0.54700
C2469       C  0.80698241  0.81213907  0.14146613     0.09300
C2470       C  0.79439336  0.84520969  0.08206918    -0.54200
C2471       C  0.77182060  0.81895917  0.09070258     0.09900
H2472       H  0.77731433  0.90276367  0.14520778     0.14400
H2473       H  0.74971507  0.79533444  0.13577997     0.00100
H2474       H  0.85957497  0.83474563  0.13954772     0.14700
H2475       H  0.80167903  0.84966467  0.05629886     0.14500
C2476       C  0.80273245  0.54676797  0.25909964     0.86300
C2477       C  0.77128318  0.53635977  0.23500198    -0.54000
C2478       C  0.75314602  0.56253295  0.22160291     0.09200
C2479       C  0.76924301  0.59771028  0.23287163     0.20200
C2480       C  0.82842947  0.57008038  0.23955676    -0.54700
C2481       C  0.81027467  0.59622335  0.22516699     0.09300
C2482       C  0.78569105  0.57178143  0.28537490    -0.54200
C2483       C  0.76875584  0.59894878  0.27130742     0.09900
H2484       H  0.76438532  0.51021859  0.22976708     0.14400
H2485       H  0.75506184  0.61970820  0.22154601     0.00100
H2486       H  0.85820928  0.56941752  0.24102523     0.14700
H2487       H  0.78859798  0.56935765  0.31235173     0.14500
C2488       C  0.66217356  0.84124630  0.20001554     0.29800
C2489       C  0.72300650  0.85631788  0.16418038     0.29800
C2490       C  0.66295956  0.82606213  0.16488888    -0.06400
C2491       C  0.66833877  0.88177356  0.19206746    -0.07200
C2492       C  0.70031686  0.82975895  0.21486169    -0.07100
C2493       C  0.69348624  0.83424497  0.14686108    -0.06400
C2494       C  0.70003418  0.88815415  0.17299160    -0.07200
C2495       C  0.73071653  0.84108262  0.19858439    -0.07100
C2496       C  0.68330093  0.83264956  0.11351745    -0.32500
N2497       N  0.64864085  0.82104520  0.11034806     0.14000
C2498       C  0.63526143  0.81923880  0.14163227    -0.32500
H2499       H  0.60672992  0.81862663  0.14744671     0.16000
C2500       C  0.70097638  0.92230320  0.16469189    -0.31400
N2501       N  0.67155247  0.93922002  0.17742818     0.12800
C2502       C  0.65195178  0.91495611  0.19484458    -0.31400
C2503       C  0.76183762  0.82678155  0.21316763    -0.31700
N2504       N  0.75177028  0.80155906  0.23373075     0.13300
H2505       H  0.78977191  0.83372293  0.20765149     0.15900
C2506       C  0.71418141  0.80116919  0.23109158    -0.31700
H2507       H  0.69828298  0.77894765  0.23482212     0.15900
H2508       H  0.62766991  0.92077273  0.20898327     0.15900
H2509       H  0.69898047  0.84270988  0.09341462     0.16000
H2510       H  0.72245056  0.93437969  0.15084089     0.15900
C2511       C  0.59871802  0.79821869  0.02765468     0.86300
C2512       C  0.57331731  0.77439673  0.04761191    -0.54000
C2513       C  0.59165647  0.75877068  0.07304139     0.09200
C2514       C  0.63278563  0.76685737  0.07512040     0.20200
C2515       C  0.61620814  0.82178378  0.05581882    -0.54700
C2516       C  0.63357695  0.80499160  0.08044352     0.09300
C2517       C  0.62966708  0.77581295  0.01466679    -0.54200
C2518       C  0.64769150  0.75949138  0.03926502     0.09900
H2519       H  0.54372348  0.77258344  0.04509001     0.14400
H2520       H  0.64751169  0.75370530  0.09576465     0.00100
H2521       H  0.61352832  0.84908897  0.05737231     0.14700
H2522       H  0.63718582  0.77410417  0.98858403     0.14500
C2523       C  0.82790238  0.77261020  0.29670122     0.86300
C2524       C  0.84393295  0.74746196  0.27144266    -0.54000
C2525       C  0.81909946  0.73229854  0.25039666     0.09200
C2526       C  0.77747988  0.74230648  0.25995969     0.20200
C2527       C  0.80377936  0.79718445  0.27538184    -0.54700
C2528       C  0.77660467  0.78176400  0.25587391     0.09300
C2529       C  0.79963849  0.75375415  0.31756151    -0.54200
C2530       C  0.77299023  0.73751869  0.29970622     0.09900
H2531       H  0.87332757  0.74521033  0.26801599     0.14400
H2532       H  0.75607406  0.72891445  0.24425460     0.00100
H2533       H  0.80703266  0.82451481  0.27612147     0.14700
H2534       H  0.79982657  0.75435176  0.34477813     0.14500
C2535       C  0.74152928  0.69891068  0.04795721     0.29800
C2536       C  0.68117477  0.73766940  0.03510475     0.29800
C2537       C  0.74324800  0.73596869  0.06135552    -0.06400
C2538       C  0.73247202  0.70472918  0.00827098    -0.07200
C2539       C  0.70404406  0.68522852  0.05972008    -0.07100
C2540       C  0.71256278  0.75510039  0.05473697    -0.06400
C2541       C  0.70080767  0.72498406  0.00241964    -0.07200
C2542       C  0.67434783  0.70498515  0.05334633    -0.07100
C2543       C  0.72256563  0.78889045  0.05785284    -0.32500
N2544       N  0.75819879  0.79183375  0.06809343     0.14000
C2545       C  0.77146331  0.75952775  0.06747025    -0.32500
H2546       H  0.80023842  0.75368035  0.06671466     0.16000
C2547       C  0.69562849  0.72788170  0.46757346    -0.31400
N2548       N  0.72274654  0.71125844  0.45068903     0.12800
C2549       C  0.74497281  0.69665207  0.47519170    -0.31400
C2550       C  0.64355671  0.68880008  0.06495015    -0.31700
N2551       N  0.65337139  0.66040659  0.08120845     0.13300
H2552       H  0.61588348  0.69605510  0.05897006     0.15900
C2553       C  0.68974608  0.65607452  0.07370234    -0.31700
H2554       H  0.70448494  0.63260739  0.07555160     0.15900
H2555       H  0.76815027  0.68061055  0.46959499     0.15900
H2556       H  0.70538086  0.80984662  0.05075081     0.16000
H2557       H  0.67314451  0.74077802  0.45520145     0.15900
C2558       C  0.74116952  0.71834957  0.31739084     0.29800
C2559       C  0.68042140  0.67920560  0.32884060     0.29800
C2560       C  0.74162017  0.68162976  0.30402494    -0.06400
C2561       C  0.73246691  0.71237935  0.35709077    -0.07200
C2562       C  0.70390146  0.73197938  0.30455441    -0.07100
C2563       C  0.71185479  0.66200413  0.31100934    -0.06400
C2564       C  0.70041429  0.69212353  0.36195486    -0.07200
C2565       C  0.67385847  0.71220969  0.31013447    -0.07100
C2566       C  0.72085280  0.62867701  0.30442457    -0.32500
N2567       N  0.75424837  0.62753945  0.29019183     0.14000
C2568       C  0.76760656  0.65989040  0.29116711    -0.32500
H2569       H  0.79494761  0.66737686  0.28557888     0.16000
C2570       C  0.69535930  0.68899406  0.39647219    -0.31400
N2571       N  0.72272233  0.70567432  0.41443566     0.12800
C2572       C  0.74518602  0.72027475  0.39081266    -0.31400
C2573       C  0.64324652  0.72920753  0.29811820    -0.31700
N2574       N  0.65364587  0.75760024  0.28204304     0.13300
H2575       H  0.61539062  0.72235648  0.30351928     0.15900
C2576       C  0.69024954  0.76139591  0.29053936    -0.31700
H2577       H  0.70573371  0.78466848  0.28936328     0.15900
H2578       H  0.76865302  0.73628864  0.39738708     0.15900
H2579       H  0.70455574  0.60704339  0.31103155     0.16000
H2580       H  0.67278410  0.67581428  0.40777843     0.15900
N2581       N  0.98926035  0.52894729  0.43425578    -0.06300
N2582       N  0.98335326  0.55268379  0.45762231    -0.58500
N2583       N  0.52071252  0.97314412  0.37629240    -0.06000
N2584       N  0.54804569  0.98166421  0.35714658    -0.60600
N2585       N  0.99019349  0.48669482  0.36513502    -0.05600
N2586       N  0.99626498  0.50285789  0.33751186    -0.58400
N2587       N  0.52003217  0.01317289  0.44173284    -0.05300
N2588       N  0.53598756  0.02634195  0.46883631    -0.60900
C2589       C  0.51300966  0.55065154  0.97894967     0.95800
C2590       C  0.53328078  0.50439773  0.33603480     0.95600
N2591       N  0.00790864  0.88670373  0.42660091    -0.06500
N2592       N  0.00482173  0.86153014  0.40398288    -0.59000
N2593       N  0.53297166  0.94858068  0.48005737    -0.04600
N2594       N  0.56420161  0.94274138  0.49614382    -0.60300
N2595       N  0.00585498  0.93422620  0.49544664    -0.06500
N2596       N  0.01775476  0.92341786  0.52450738    -0.59300
N2597       N  0.53216790  0.90874545  0.41630979    -0.04300
N2598       N  0.54694155  0.89862802  0.38830075    -0.60400
Mn2599     Mn  0.52754455  0.96098443  0.42838499     1.18400
C2600       C  0.52945216  0.86953002  0.38017279     0.97900
C2601       C  0.55429921  0.92149791  0.02055188     0.98600
N2602       N  0.90802626  0.47416921  0.36822503    -0.06600
N2603       N  0.90320053  0.47332201  0.33546924    -0.62900
N2604       N  0.88240740  0.99751191  0.44430181    -0.05400
N2605       N  0.86073611  0.01218075  0.46595501    -0.63500
N2606       N  0.90519909  0.51962767  0.43200945    -0.06100
N2607       N  0.89988631  0.55002867  0.44516096    -0.63100
N2608       N  0.88592433  0.95223951  0.38180925    -0.05000
N2609       N  0.86553626  0.43635727  0.35873882    -0.63800
Mn2610     Mn  0.94800727  0.50385187  0.39889788     1.10700
C2611       C  0.87566158  0.45041189  0.32978363     0.99100
C2612       C  0.87181677  0.54489651  0.96591031     0.99200
N2613       N  0.92559516  0.92146458  0.49951188    -0.06100
N2614       N  0.92881607  0.92592447  0.53225306    -0.61500
N2615       N  0.89598286  0.89045426  0.42489870    -0.05400
N2616       N  0.87876825  0.87222195  0.40140968    -0.58200
N2617       N  0.92542523  0.87475099  0.43580108    -0.06700
N2618       N  0.92893045  0.84529156  0.41997988    -0.61000
N2619       N  0.89652743  0.93722211  0.48797924    -0.05700
N2620       N  0.87957423  0.95288957  0.51250034    -0.58200
Mn2621     Mn  0.96690986  0.90254159  0.46540408     1.20200
Mn2622     Mn  0.88827914  0.94397747  0.43486244     1.10100
Cl2623     Cl  0.95744935  0.95268130  0.43164872    -0.86200
C2624       C  0.89951366  0.94520008  0.04036522     0.96200
C2625       C  0.89951268  0.84416801  0.39872603     0.96000
C2626       C  0.89070965  0.78831176  0.37246070    -0.26500
C2627       C  0.89754916  0.82271348  0.36872108    -0.14600
C2628       C  0.89350186  0.83713921  0.33680440     0.36000
C2629       C  0.87274081  0.81980155  0.31216022    -0.26000
C2630       C  0.85835091  0.78773712  0.31864794    -0.15200
C2631       C  0.87287647  0.76988906  0.34649533     0.37100
N2632       N  0.86714291  0.73397743  0.34930886    -0.89500
H2633       H  0.89650469  0.77658915  0.39631055     0.18200
H2634       H  0.86725569  0.83184241  0.28846673     0.18200
N2635       N  0.90988416  0.86903635  0.32882744    -0.88500
H2636       H  0.87881534  0.72537287  0.37174003     0.35600
H2637       H  0.88136886  0.72201998  0.32993550     0.40700
H2638       H  0.92449374  0.87964500  0.34934808     0.40300
H2639       H  0.88853930  0.88536892  0.32229869     0.35200
C2640       C  0.60656628  0.84467145  0.98963813    -0.26500
C2641       C  0.58236087  0.81911142  0.00009671    -0.14600
C2642       C  0.54559509  0.82765227  0.00309643     0.36000
C2643       C  0.53770511  0.86036566  0.01322715    -0.26000
C2644       C  0.56550966  0.88600946  0.01415084    -0.15200
C2645       C  0.59983853  0.87829603  0.99994710     0.37100
N2646       N  0.62818036  0.90373607  0.49822035    -0.89500
H2647       H  0.63431749  0.83792424  0.98284876     0.18200
H2648       H  0.50927412  0.86530870  0.01912959     0.18200
N2649       N  0.51676624  0.80320050  0.99690866    -0.88500
H2650       H  0.65181078  0.89357446  0.48753684     0.35600
H2651       H  0.63552612  0.91109913  0.52284266     0.40700
H2652       H  0.50043497  0.81174361  0.97693128     0.40300
H2653       H  0.50003935  0.80284121  0.01790379     0.35200
C2654       C  0.86065612  0.46712443  0.27299862    -0.26500
C2655       C  0.84796575  0.45854547  0.30447372    -0.14600
C2656       C  0.81469250  0.47216601  0.31561371     0.36000
C2657       C  0.80067429  0.50048487  0.29998630    -0.26000
C2658       C  0.81904051  0.51495094  0.27312083    -0.15200
C2659       C  0.84562538  0.49466513  0.25641833     0.37100
N2660       N  0.85732616  0.50035287  0.22293206    -0.89500
H2661       H  0.88480640  0.45482673  0.26305103     0.18200
H2662       H  0.77586798  0.51167240  0.30973688     0.18200
N2663       N  0.79727218  0.45974556  0.34481234    -0.88500
H2664       H  0.87517533  0.52104267  0.22252109     0.35600
H2665       H  0.83431430  0.50402904  0.20720362     0.40700
H2666       H  0.77022988  0.45280152  0.33806390     0.40300
H2667       H  0.79625517  0.47955437  0.36263427     0.35200
C2668       C  0.87330224  0.89707839  0.11209119    -0.26500
C2669       C  0.83527988  0.89565197  0.10361904    -0.14600
C2670       C  0.81992261  0.92321368  0.08557872     0.36000
C2671       C  0.84327606  0.94694495  0.07204978    -0.26000
C2672       C  0.88115985  0.94121665  0.07231594    -0.15200
C2673       C  0.89656983  0.91970388  0.09628360     0.37100
N2674       N  0.93584414  0.91840359  0.60150648    -0.89500
H2675       H  0.88601344  0.87967358  0.12906312     0.18200
H2676       H  0.83137043  0.96596114  0.05592577     0.18200
N2677       N  0.78129980  0.92688790  0.07818984    -0.88500
H2678       H  0.94286018  0.90027123  0.61931276     0.35600
H2679       H  0.94441267  0.94185149  0.61158123     0.40700
H2680       H  0.76712703  0.93218253  0.10007275     0.40300
H2681       H  0.77072009  0.90508986  0.06615236     0.35200
C2682       C  0.52325004  0.56588694  0.33053469    -0.26500
C2683       C  0.54728866  0.53962364  0.34006315    -0.14600
C2684       C  0.57786091  0.54813574  0.36174077     0.36000
C2685       C  0.58489132  0.58219107  0.37039978    -0.26000
C2686       C  0.56639038  0.60733528  0.35248575    -0.15200
C2687       C  0.53093054  0.59920703  0.34022378     0.37100
N2688       N  0.50298875  0.62453998  0.33789860    -0.89500
H2689       H  0.49723025  0.56053504  0.31755742     0.18200
H2690       H  0.61049595  0.58836667  0.38373027     0.18200
N2691       N  0.60306928  0.52297871  0.37339149    -0.88500
H2692       H  0.48159248  0.61750859  0.35344240     0.35600
H2693       H  0.49232256  0.62425544  0.31329964     0.40700
H2694       H  0.60395863  0.52423538  0.39961380     0.40300
H2695       H  0.62928207  0.52905863  0.36493029     0.35200
C2696       C  0.81250308  0.58960145  0.02628969    -0.26500
C2697       C  0.83755016  0.61135493  0.04404905    -0.14600
C2698       C  0.87446375  0.61310844  0.03355772     0.36000
C2699       C  0.88548324  0.59137088  0.00725899    -0.26000
C2700       C  0.86005548  0.56918234  0.99108834    -0.15200
C2701       C  0.82334758  0.56864823  0.00039876     0.37100
N2702       N  0.79664356  0.54732689  0.98303271    -0.89500
H2703       H  0.78343600  0.58951180  0.03190477     0.18200
H2704       H  0.91385455  0.59165217  0.99942049     0.18200
N2705       N  0.90007979  0.63734301  0.04822134    -0.88500
H2706       H  0.77583330  0.06267243  0.97329166     0.35600
H2707       H  0.78477624  0.03139576  0.00059205     0.40700
H2708       H  0.89106681  0.66140471  0.04148965     0.40300
H2709       H  0.92614822  0.63435135  0.03797816     0.35200
C2710       C  0.53007031  0.81450737  0.30176582    -0.26500
C2711       C  0.54938750  0.83663976  0.28071010    -0.14600
C2712       C  0.54807072  0.87161535  0.28831404     0.36000
C2713       C  0.53774292  0.88218897  0.32035460    -0.26000
C2714       C  0.52720907  0.85864883  0.34445197    -0.15200
C2715       C  0.51940980  0.82518970  0.33397773     0.37100
N2716       N  0.50385769  0.80169071  0.35677474    -0.89500
H2717       H  0.52815587  0.78777228  0.29509452     0.18200
H2718       H  0.54007344  0.90893431  0.32690011     0.18200
N2719       N  0.55721817  0.89653565  0.26435514    -0.88500
H2720       H  0.50080619  0.77774671  0.34524062     0.35600
H2721       H  0.47728516  0.81000348  0.36194675     0.40700
H2722       H  0.53432122  0.91208288  0.26079658     0.40600
H2723       H  0.57869823  0.91160336  0.27452741     0.35200
C2724       C  0.54044850  0.55153278  0.07010520    -0.26500
C2725       C  0.54439316  0.58641201  0.07580040    -0.14600
C2726       C  0.52576607  0.60859936  0.05338506     0.36000
C2727       C  0.51114600  0.59603648  0.02269079    -0.26000
C2728       C  0.51379232  0.56171068  0.01453387    -0.15200
C2729       C  0.52518073  0.53907439  0.03971062     0.37100
N2730       N  0.52317368  0.50326403  0.53386111    -0.89500
H2731       H  0.55150198  0.53363050  0.08769626     0.18200
H2732       H  0.50109342  0.61355372  0.00409580     0.18200
N2733       N  0.52487963  0.64437911  0.06019543    -0.88500
H2734       H  0.50654536  0.49297317  0.55215376     0.35600
H2735       H  0.54971740  0.49370702  0.53742005     0.40700
H2736       H  0.49732037  0.65187325  0.06020310     0.40300
H2737       H  0.53787154  0.65672202  0.04074702     0.35200
C2738       C  0.57326458  0.60080476  0.60070660     0.86300
C2739       C  0.59772947  0.57708185  0.62292819    -0.54000
C2740       C  0.62449660  0.59362023  0.64204190     0.09200
C2741       C  0.62216971  0.63381154  0.63705881     0.20200
C2742       C  0.55625404  0.62650474  0.62530238    -0.54700
C2743       C  0.58075912  0.64529851  0.64381441     0.09300
C2744       C  0.60154792  0.62048617  0.58024204    -0.54200
C2745       C  0.62754779  0.63785409  0.59817206     0.09900
H2746       H  0.59588700  0.54970124  0.62237943     0.14400
H2747       H  0.64189220  0.64888625  0.65297694     0.00100
H2748       H  0.52697527  0.63158864  0.62546863     0.14700
H2749       H  0.60068072  0.62111811  0.55300464     0.14500
C2750       C  0.56955358  0.67948856  0.66210372     0.29800
C2751       C  0.57030635  0.74270333  0.69346074     0.29800
C2752       C  0.58464073  0.70850363  0.64230397    -0.06400
C2753       C  0.52984058  0.69402496  0.67096117    -0.07200
C2754       C  0.58882609  0.68222813  0.69592559    -0.07100
C2755       C  0.58425823  0.74090471  0.65749709    -0.06400
C2756       C  0.53034763  0.72646339  0.68781779    -0.07200
C2757       C  0.58920766  0.71424512  0.71160446    -0.07100
C2758       C  0.57495767  0.76214944  0.63143580    -0.32500
N2759       N  0.57399891  0.74521756  0.60158713     0.14000
C2760       C  0.57746598  0.71240529  0.60871107    -0.32500
H2761       H  0.57021085  0.69208330  0.59119013     0.16000
C2762       C  0.99347716  0.73441020  0.69419893    -0.31400
N2763       N  0.97069965  0.70908143  0.68163485     0.12800
C2764       C  0.99255450  0.68468271  0.66737600    -0.31400
C2765       C  0.58541073  0.70909344  0.74520396    -0.31700
N2766       N  0.58405709  0.67597252  0.75086957     0.13300
H2767       H  0.57707945  0.72819370  0.76319856     0.15900
C2768       C  0.58435587  0.65961652  0.72109122    -0.31700
H2769       H  0.57267491  0.63478485  0.71740871     0.15900
H2770       H  0.98205485  0.66156936  0.65553693     0.15900
H2771       H  0.56286552  0.78688654  0.63439941     0.16000
H2772       H  0.98379699  0.75729916  0.70635878     0.15900
C2773       C  0.57745296  0.82033443  0.75742165     0.86300
C2774       C  0.60424587  0.84242247  0.73684132    -0.54000
C2775       C  0.62977798  0.82450365  0.71943313     0.09200
C2776       C  0.62484456  0.78486181  0.72407063     0.20200
C2777       C  0.55921692  0.79525625  0.73170549    -0.54700
C2778       C  0.58290206  0.77583709  0.71389506     0.09300
C2779       C  0.60362425  0.79903204  0.77962057    -0.54200
C2780       C  0.62882946  0.78045074  0.76335714     0.09900
H2781       H  0.60528301  0.86964706  0.73688228     0.14400
H2782       H  0.64436151  0.76914453  0.70964016     0.00100
H2783       H  0.52967355  0.79153445  0.72990013     0.14700
H2784       H  0.60223561  0.79862119  0.80680320     0.14500
C2785       C  0.65677385  0.57529795  0.66247834     0.29800
C2786       C  0.71865852  0.55994700  0.69964910     0.29800
C2787       C  0.65813887  0.58896906  0.69842569    -0.06400
C2788       C  0.66373046  0.53431987  0.66915817    -0.07200
C2789       C  0.69480924  0.58775515  0.64949257    -0.07100
C2790       C  0.68972472  0.58158038  0.71689830    -0.06400
C2791       C  0.69587863  0.52818089  0.68915972    -0.07200
C2792       C  0.72539487  0.57589283  0.66610719    -0.07100
C2793       C  0.68052944  0.58227898  0.75012001    -0.32500
N2794       N  0.64518572  0.59150174  0.75306887     0.14000
C2795       C  0.63076614  0.59282276  0.72152177    -0.32500
H2796       H  0.60184236  0.59063592  0.71562752     0.16000
C2797       C  0.69877997  0.99379266  0.69555288    -0.31400
N2798       N  0.67065064  0.97607083  0.68063758     0.12800
C2799       C  0.64934460  0.50014357  0.66385312    -0.31400
C2800       C  0.75631311  0.59050611  0.65320500    -0.31700
N2801       N  0.74629920  0.61660277  0.63373124     0.13300
H2802       H  0.78404708  0.58225532  0.65817654     0.15900
C2803       C  0.70887828  0.61688257  0.63476758    -0.31700
H2804       H  0.69363300  0.63918263  0.63035681     0.15900
H2805       H  0.62529021  0.99366675  0.64843517     0.15900
H2806       H  0.69721969  0.57226452  0.77018957     0.16000
H2807       H  0.72045215  0.98156113  0.70944580     0.15900
C2808       C  0.81965702  0.63511159  0.56896361     0.86300
C2809       C  0.84147562  0.65736092  0.59526836    -0.54000
C2810       C  0.81933833  0.67651422  0.61554436     0.09200
C2811       C  0.77673215  0.67208943  0.60543387     0.20200
C2812       C  0.79331461  0.61479386  0.59098198    -0.54700
C2813       C  0.77027628  0.63340303  0.60998474     0.09300
C2814       C  0.79586160  0.65937681  0.54840309    -0.54200
C2815       C  0.77232198  0.67813703  0.56596431     0.09900
H2816       H  0.87049356  0.65434398  0.60107341     0.14400
H2817       H  0.75803598  0.68774995  0.62089477     0.00100
H2818       H  0.79354153  0.58729578  0.59194867     0.14700
H2819       H  0.79594497  0.65974744  0.52119265     0.14500
C2820       C  0.59127140  0.62419492  0.82816984     0.86300
C2821       C  0.57289035  0.64962064  0.80419864    -0.54000
C2822       C  0.59624367  0.66111240  0.78116484     0.09200
C2823       C  0.63551096  0.64849316  0.78495683     0.20200
C2824       C  0.60837838  0.59715811  0.80389986    -0.54700
C2825       C  0.63147643  0.61022445  0.78150980     0.09300
C2826       C  0.62397460  0.64379464  0.84487877    -0.54200
C2827       C  0.64699238  0.65685118  0.82220888     0.09900
H2828       H  0.54411298  0.65617626  0.80299144     0.14400
H2829       H  0.65393090  0.65906789  0.76586969     0.00100
H2830       H  0.60111672  0.57048636  0.80288597     0.14700
H2831       H  0.62778481  0.64761701  0.87173378     0.14500
C2832       C  0.83170496  0.71708322  0.71559590     0.29800
C2833       C  0.83169488  0.69091519  0.65099598     0.29800
C2834       C  0.81262278  0.73770809  0.68895831    -0.06400
C2835       C  0.87178865  0.71342393  0.69972777    -0.07200
C2836       C  0.81769215  0.68110066  0.71068579    -0.07100
C2837       C  0.81291721  0.72455146  0.65621615    -0.06400
C2838       C  0.87141696  0.69934078  0.66631551    -0.07200
C2839       C  0.81686957  0.66795737  0.67779413    -0.07100
C2840       C  0.81754625  0.75176683  0.63598299    -0.32500
N2841       N  0.81832960  0.78055954  0.65435683     0.14000
C2842       C  0.81654930  0.77225306  0.68656144    -0.32500
H2843       H  0.82466084  0.78928307  0.70692593     0.16000
C2844       C  0.90809372  0.69653977  0.65682289    -0.31400
N2845       N  0.93103654  0.70856821  0.68218748     0.12800
C2846       C  0.90929460  0.71907386  0.70819284    -0.31400
C2847       C  0.82412565  0.63385732  0.68020402    -0.31700
N2848       N  0.82827742  0.62530736  0.71251576     0.13300
H2849       H  0.83070401  0.61711986  0.65942259     0.15900
C2850       C  0.82755292  0.65440748  0.73056140    -0.31700
H2851       H  0.83947483  0.65657707  0.75557168     0.15900
H2852       H  0.92004408  0.72928779  0.73184723     0.15900
H2853       H  0.82866948  0.75011075  0.61138953     0.16000
H2854       H  0.91741324  0.68658669  0.63304259     0.15900
C2855       C  0.81166256  0.86551997  0.61295204     0.86300
C2856       C  0.77971080  0.87734913  0.63471609    -0.54000
C2857       C  0.75622936  0.85240626  0.64226310     0.09200
C2858       C  0.76779557  0.81670404  0.62867673     0.20200
C2859       C  0.83057260  0.83723521  0.63355185    -0.54700
C2860       C  0.80698173  0.81214531  0.64146402     0.09300
C2861       C  0.79438424  0.84521247  0.58206624    -0.54200
C2862       C  0.77181430  0.81896049  0.59070189     0.09900
H2863       H  0.77729991  0.90276790  0.64519997     0.14400
H2864       H  0.74971593  0.79533455  0.63578169     0.00100
H2865       H  0.85957262  0.83475567  0.63953592     0.14700
H2866       H  0.80166766  0.84966698  0.55629528     0.14500
C2867       C  0.80274431  0.54676865  0.75909307     0.86300
C2868       C  0.77129198  0.53636195  0.73499821    -0.54000
C2869       C  0.75314942  0.56253620  0.72160638     0.09200
C2870       C  0.76924647  0.59771272  0.73287662     0.20200
C2871       C  0.82843591  0.57008481  0.73954899    -0.54700
C2872       C  0.81027668  0.59622890  0.72516588     0.09300
C2873       C  0.78570561  0.57177837  0.78537407    -0.54200
C2874       C  0.76876618  0.59894704  0.77131226     0.09900
H2875       H  0.76439864  0.51022092  0.72975782     0.14400
H2876       H  0.75506216  0.61971126  0.72155539     0.00100
H2877       H  0.85821578  0.56942428  0.74101285     0.14700
H2878       H  0.78861648  0.56935005  0.81235014     0.14500
C2879       C  0.66216695  0.84124463  0.70001577     0.29800
C2880       C  0.72299909  0.85631528  0.66417898     0.29800
C2881       C  0.66295370  0.82605623  0.66489048    -0.06400
C2882       C  0.66832946  0.88177108  0.69206292    -0.07200
C2883       C  0.70031119  0.82976206  0.71486373    -0.07100
C2884       C  0.69348091  0.83423759  0.64686194    -0.06400
C2885       C  0.70002404  0.88815071  0.67298572    -0.07200
C2886       C  0.73071032  0.84108530  0.69858517    -0.07100
C2887       C  0.68329385  0.83264385  0.61351846    -0.32500
N2888       N  0.64863175  0.82104458  0.61034904     0.14000
C2889       C  0.63525395  0.81923715  0.64163379    -0.32500
H2890       H  0.60672235  0.81862889  0.64744889     0.16000
C2891       C  0.70096601  0.92229888  0.66468356    -0.31400
N2892       N  0.67154383  0.93921690  0.67742105     0.12800
C2893       C  0.65194355  0.91495410  0.69483947    -0.31400
C2894       C  0.76183229  0.82678672  0.71316945    -0.31700
N2895       N  0.75176625  0.80156566  0.73373467     0.13300
H2896       H  0.78976619  0.83372788  0.70765181     0.15900
C2897       C  0.71417730  0.80117435  0.73109566    -0.31700
H2898       H  0.69827987  0.77895203  0.73482500     0.15900
H2899       H  0.62766341  0.92077191  0.70898019     0.15900
H2900       H  0.69897278  0.84270573  0.59341610     0.16000
H2901       H  0.72243974  0.93437453  0.65083143     0.15900
C2902       C  0.59870268  0.79821567  0.52765745     0.86300
C2903       C  0.57330459  0.77439375  0.54761610    -0.54000
C2904       C  0.59164597  0.75876937  0.57304486     0.09200
C2905       C  0.63277518  0.76685715  0.57512221     0.20200
C2906       C  0.61619393  0.82178263  0.55582012    -0.54700
C2907       C  0.63356566  0.80499136  0.58044469     0.09300
C2908       C  0.62965233  0.77581032  0.51466876    -0.54200
C2909       C  0.64768003  0.75949104  0.53926666     0.09900
H2910       H  0.54371075  0.77257873  0.54509546     0.14400
H2911       H  0.64750255  0.75370575  0.59576612     0.00100
H2912       H  0.61351304  0.84908789  0.55737184     0.14700
H2913       H  0.63716889  0.77409987  0.48858549     0.14500
C2914       C  0.82790150  0.77261818  0.79670223     0.86300
C2915       C  0.84393241  0.74747234  0.77144120    -0.54000
C2916       C  0.81909886  0.73230730  0.75039625     0.09200
C2917       C  0.77747965  0.74231305  0.75996084     0.20200
C2918       C  0.80377670  0.79719244  0.77538494    -0.54700
C2919       C  0.77660217  0.78177117  0.75587697     0.09300
C2920       C  0.79963923  0.75375937  0.81756213    -0.54200
C2921       C  0.77299233  0.73752214  0.79970684     0.09900
H2922       H  0.87332694  0.74522310  0.76801277     0.14400
H2923       H  0.75607399  0.72892080  0.74425579     0.00100
H2924       H  0.80702912  0.82452289  0.77612553     0.14700
H2925       H  0.79982841  0.75435539  0.84477881     0.14500
C2926       C  0.74152032  0.69891220  0.54795865     0.29800
C2927       C  0.68116455  0.73767001  0.53510577     0.29800
C2928       C  0.74323805  0.73597008  0.56135684    -0.06400
C2929       C  0.73246288  0.70473076  0.50827225    -0.07200
C2930       C  0.70403542  0.68522945  0.55972171    -0.07100
C2931       C  0.71255300  0.75510191  0.55473752    -0.06400
C2932       C  0.70079779  0.72498473  0.50242063    -0.07200
C2933       C  0.67433848  0.70498528  0.55334755    -0.07100
C2934       C  0.72255747  0.78889202  0.55785190    -0.32500
N2935       N  0.75819059  0.79183461  0.56809394     0.14000
C2936       C  0.77145376  0.75952826  0.56747250    -0.32500
H2937       H  0.80022853  0.75367960  0.56671933     0.16000
C2938       C  0.69563750  0.72788053  0.96757265    -0.31400
N2939       N  0.72275424  0.71125580  0.95068811     0.12800
C2940       C  0.74498050  0.69664891  0.97519039    -0.31400
C2941       C  0.64354778  0.68879904  0.56495149    -0.31700
N2942       N  0.65336363  0.66040590  0.58121013     0.13300
H2943       H  0.61587415  0.69605346  0.55897201     0.15900
C2944       C  0.68973874  0.65607536  0.57370506    -0.31700
H2945       H  0.70447905  0.63260917  0.57555645     0.15900
H2946       H  0.76815665  0.68060588  0.96959333     0.15900
H2947       H  0.70537375  0.80984845  0.55074827     0.16000
H2948       H  0.67315365  0.74077711  0.95520077     0.15900
C2949       C  0.74117429  0.71834924  0.81739105     0.29800
C2950       C  0.68042783  0.67920310  0.82884004     0.29800
C2951       C  0.74162756  0.68162873  0.80402540    -0.06400
C2952       C  0.73247195  0.71237856  0.85709042    -0.07200
C2953       C  0.70390542  0.73197753  0.80455436    -0.07100
C2954       C  0.71186141  0.66200257  0.81100774    -0.06400
C2955       C  0.70042050  0.69212138  0.86195438    -0.07200
C2956       C  0.67386359  0.71220662  0.81013387    -0.07100
C2957       C  0.72086117  0.62867515  0.80442636    -0.32500
N2958       N  0.75426044  0.62753627  0.79020071     0.14000
C2959       C  0.76761836  0.65988763  0.79117671    -0.32500
H2960       H  0.79496240  0.66737290  0.78559689     0.16000
C2961       C  0.69536669  0.68899070  0.89647173    -0.31400
N2962       N  0.72272934  0.70567184  0.91443490     0.12800
C2963       C  0.74519145  0.72027403  0.89081194    -0.31400
C2964       C  0.64325070  0.72920324  0.79811792    -0.31700
N2965       N  0.65364806  0.75759656  0.78204292     0.13300
H2966       H  0.61539536  0.72235163  0.80352021     0.15900
C2967       C  0.69025150  0.76139393  0.79054020    -0.31700
H2968       H  0.70573405  0.78466757  0.78936601     0.15900
H2969       H  0.76865769  0.73628887  0.89738626     0.15900
H2970       H  0.70456320  0.60704195  0.81103254     0.16000
H2971       H  0.67279276  0.67580937  0.90777824     0.15900
N2972       N  0.98929065  0.52893780  0.93425685    -0.06300
N2973       N  0.98338809  0.55268289  0.95761528    -0.58500
N2974       N  0.52071537  0.97313536  0.87629930    -0.06000
N2975       N  0.54804793  0.98165495  0.85715248    -0.60600
N2976       N  0.99021594  0.48667703  0.86514262    -0.05600
N2977       N  0.99628871  0.50283312  0.83751572    -0.58400
N2978       N  0.52003320  0.01316038  0.94174267    -0.05300
N2979       N  0.53598640  0.02632734  0.96884827    -0.60900
C2980       C  0.51301027  0.55063738  0.47896185     0.95800
C2981       C  0.53327624  0.50441006  0.83603343     0.95600
N2982       N  0.00791548  0.88671702  0.92659063    -0.06500
N2983       N  0.00483330  0.86154086  0.90397515    -0.59000
N2984       N  0.53296974  0.94857001  0.98006481    -0.04600
N2985       N  0.56419871  0.94274065  0.99615672    -0.60300
N2986       N  0.00586229  0.93424125  0.99543539    -0.06500
N2987       N  0.01777040  0.92343340  0.02449368    -0.59300
N2988       N  0.53217104  0.90873310  0.91631719    -0.04300
N2989       N  0.54695096  0.89861269  0.88831206    -0.60400
Mn2990     Mn  0.52754608  0.96097317  0.92839224     1.18400
C2991       C  0.52946525  0.86951225  0.88018525     0.97900
C2992       C  0.55430011  0.92150021  0.52053965     0.98600
N2993       N  0.90804738  0.47417551  0.86822613    -0.06600
N2994       N  0.90322610  0.47332708  0.83546983    -0.62900
N2995       N  0.88238926  0.99749945  0.94430517    -0.05400
N2996       N  0.86072191  0.01216281  0.96596561    -0.63500
N2997       N  0.90522781  0.51963525  0.93201031    -0.06100
N2998       N  0.89991757  0.55003852  0.94515791    -0.63100
N2999       N  0.88591108  0.95222898  0.88181056    -0.05000
N3000       N  0.86555242  0.43636921  0.85873727    -0.63800
Mn3001     Mn  0.94803366  0.50384829  0.89890103     1.10700
C3002       C  0.87568409  0.45042040  0.82978253     0.99100
C3003       C  0.87179237  0.54488050  0.46591923     0.99200
N3004       N  0.92560590  0.92146418  0.99950996    -0.06100
N3005       N  0.92883142  0.92592640  0.03225051    -0.61500
N3006       N  0.89598698  0.89044443  0.92490440    -0.05400
N3007       N  0.87876648  0.87220436  0.90142504    -0.58200
N3008       N  0.92543585  0.87474782  0.93580151    -0.06700
N3009       N  0.92894089  0.84528594  0.91998471    -0.61000
N3010       N  0.89653191  0.93721450  0.98798056    -0.05700
N3011       N  0.87957893  0.95287924  0.01250335    -0.58200
Mn3012     Mn  0.96691938  0.90254791  0.96539803     1.20200
Mn3013     Mn  0.88827337  0.94396683  0.93486487     1.10100
Cl3014     Cl  0.95744164  0.95268466  0.93164313    -0.86200
C3015       C  0.89950251  0.94520520  0.54036441     0.96200
C3016       C  0.89951498  0.84415296  0.89874008     0.96000
C3017       C  0.89071232  0.78830181  0.87246219    -0.26500
C3018       C  0.89755374  0.82270415  0.86873100    -0.14600
C3019       C  0.89350642  0.83713780  0.83681805     0.36000
C3020       C  0.87273867  0.81980945  0.81217170    -0.26000
C3021       C  0.85835020  0.78774238  0.81865093    -0.15200
C3022       C  0.87287870  0.76988631  0.84649210     0.37100
N3023       N  0.86714626  0.73397345  0.84929532    -0.89500
H3024       H  0.89650753  0.77657270  0.89630872     0.18200
H3025       H  0.86725061  0.83185779  0.78848260     0.18200
N3026       N  0.90989821  0.86903250  0.82884702    -0.88500
H3027       H  0.87881838  0.72536267  0.87172414     0.35600
H3028       H  0.88137324  0.72202210  0.82991905     0.40700
H3029       H  0.92450926  0.87963463  0.84936996     0.40300
H3030       H  0.88855859  0.88537117  0.82231963     0.35200
C3031       C  0.60654946  0.84466060  0.48963281    -0.26500
C3032       C  0.58234212  0.81910600  0.50009929    -0.14600
C3033       C  0.54557747  0.82765189  0.50310189     0.36000
C3034       C  0.53769233  0.86036996  0.51322130    -0.26000
C3035       C  0.56550154  0.88600928  0.51413916    -0.15200
C3036       C  0.59982800  0.87828786  0.49993555     0.37100
N3037       N  0.62818654  0.90374917  0.99823802    -0.89500
H3038       H  0.63429875  0.83790873  0.48284171     0.18200
H3039       H  0.50926232  0.86531929  0.51912273     0.18200
N3040       N  0.51674463  0.80320143  0.49692637    -0.88500
H3041       H  0.65181950  0.89359316  0.98755357     0.35600
H3042       H  0.63552978  0.91110871  0.02286166     0.40700
H3043       H  0.50041032  0.81173955  0.47694871     0.40300
H3044       H  0.50002232  0.80285067  0.51792482     0.35200
C3045       C  0.86068990  0.46713799  0.77299596    -0.26500
C3046       C  0.84799337  0.45855319  0.80446734    -0.14600
C3047       C  0.81471086  0.47216186  0.81559921     0.36000
C3048       C  0.80068613  0.50047655  0.79996902    -0.26000
C3049       C  0.81905605  0.51495083  0.77311014    -0.15200
C3050       C  0.84565290  0.49467430  0.75641292     0.37100
N3051       N  0.85735739  0.50036490  0.72292843    -0.89500
H3052       H  0.88484750  0.45484823  0.76305359     0.18200
H3053       H  0.77587342  0.51165709  0.80971421     0.18200
N3054       N  0.79728646  0.45973498  0.84479306    -0.88500
H3055       H  0.87520644  0.52105505  0.72252094     0.35600
H3056       H  0.83434721  0.50404125  0.70719800     0.40700
H3057       H  0.77024849  0.45278263  0.83803799     0.40300
H3058       H  0.79625705  0.47954304  0.86261504     0.35200
C3059       C  0.87328577  0.89709901  0.61209910    -0.26500
C3060       C  0.83526646  0.89566092  0.60361468    -0.14600
C3061       C  0.81990779  0.92321655  0.58556641     0.36000
C3062       C  0.84325971  0.94695168  0.57204131    -0.26000
C3063       C  0.88114448  0.94122829  0.57231414    -0.15200
C3064       C  0.89655343  0.91972355  0.59628957     0.37100
N3065       N  0.93586097  0.91837814  0.10149499    -0.89500
H3066       H  0.88599451  0.87970341  0.62908232     0.18200
H3067       H  0.83135401  0.96596353  0.55591232     0.18200
N3068       N  0.78128626  0.92688004  0.57816534    -0.88500
H3069       H  0.94287790  0.90023739  0.11929259     0.35600
H3070       H  0.94443319  0.94182128  0.11157860     0.40700
H3071       H  0.76710208  0.93216280  0.60004440     0.40300
H3072       H  0.77072000  0.90508172  0.56611861     0.35200
C3073       C  0.52324609  0.56589949  0.83053695    -0.26500
C3074       C  0.54728252  0.53963589  0.84006845    -0.14600
C3075       C  0.57785055  0.54814741  0.86175182     0.36000
C3076       C  0.58488238  0.58220295  0.87040901    -0.26000
C3077       C  0.56638654  0.60734664  0.85249042    -0.15200
C3078       C  0.53092719  0.59921954  0.84022560     0.37100
N3079       N  0.50298732  0.62455381  0.83789497    -0.89500
H3080       H  0.49722807  0.56054805  0.81755641     0.18200
H3081       H  0.61048489  0.58837812  0.88374317     0.18200
N3082       N  0.60305317  0.52298964  0.87341117    -0.88500
H3083       H  0.48158795  0.61752471  0.85343624     0.35600
H3084       H  0.49232508  0.62426814  0.81329455     0.40700
H3085       H  0.60393557  0.52424953  0.89963337     0.40300
H3086       H  0.62926907  0.52906607  0.86495504     0.35200
C3087       C  0.81248797  0.58959431  0.52630178    -0.26500
C3088       C  0.83753779  0.61135059  0.54405482    -0.14600
C3089       C  0.87445152  0.61309639  0.53356337     0.36000
C3090       C  0.88546682  0.59135313  0.50726762    -0.26000
C3091       C  0.86003622  0.56916300  0.49110270    -0.15200
C3092       C  0.82332989  0.56863100  0.50041764     0.37100
N3093       N  0.79662424  0.54730334  0.48306165    -0.89500
H3094       H  0.78342111  0.58950863  0.53191778     0.18200
H3095       H  0.91383717  0.59163175  0.49942634     0.18200
N3096       N  0.90007198  0.63732893  0.54822368    -0.88500
H3097       H  0.77584886  0.06269996  0.47326808     0.35600
H3098       H  0.78479023  0.03141235  0.50055656     0.40700
H3099       H  0.89106368  0.66139099  0.54148876     0.40300
H3100       H  0.92613998  0.63433145  0.53798092     0.35200
C3101       C  0.53007015  0.81449553  0.80177276    -0.26500
C3102       C  0.54938476  0.83662970  0.78071684    -0.14600
C3103       C  0.54806893  0.87160425  0.78832331     0.36000
C3104       C  0.53775065  0.88217503  0.82036724    -0.26000
C3105       C  0.52722034  0.85863284  0.84446407    -0.15200
C3106       C  0.51941545  0.82517530  0.83398720     0.37100
N3107       N  0.50386200  0.80167559  0.85678279    -0.89500
H3108       H  0.52815358  0.78776109  0.79509904     0.18200
H3109       H  0.54008302  0.90891985  0.82691434     0.18200
N3110       N  0.55720555  0.89652602  0.76436244    -0.88500
H3111       H  0.50080390  0.77773372  0.84524543     0.35600
H3112       H  0.47729186  0.80999203  0.86195900     0.40700
H3113       H  0.53430574  0.91207124  0.76081094     0.40600
H3114       H  0.57868714  0.91159540  0.77452933     0.35200
C3115       C  0.54044301  0.55152588  0.57011909    -0.26500
C3116       C  0.54438847  0.58640562  0.57581039    -0.14600
C3117       C  0.52576104  0.60859074  0.55339321     0.36000
C3118       C  0.51114386  0.59602533  0.52269902    -0.26000
C3119       C  0.51379126  0.56169897  0.51454520    -0.15200
C3120       C  0.52517658  0.53906474  0.53972491     0.37100
N3121       N  0.52318083  0.50327419  0.03384284    -0.89500
H3122       H  0.55149480  0.53362552  0.58771300     0.18200
H3123       H  0.50109222  0.61354091  0.50410208     0.18200
N3124       N  0.52487149  0.64437074  0.56020172    -0.88500
H3125       H  0.50655576  0.49297953  0.05213595     0.35600
H3126       H  0.54972590  0.49371902  0.03739762     0.40700
H3127       H  0.49731153  0.65186308  0.56020720     0.40300
H3128       H  0.53786392  0.65671348  0.54075362     0.35200
loop_ 
_geom_bond_atom_site_label_1 
_geom_bond_atom_site_label_2 
_geom_bond_distance 
_geom_bond_site_symmetry_2 
_ccdc_geom_bond_type 
C1            C2   1.569       .  S
C1            C7   1.544       .  S
C1            C5   1.538       .  S
C1          C379   1.525       .  S
C2            H9   1.082       .  S
C2            C3   1.373       .  D
C3            C4   1.605       .  S
C3           C48   1.598       .  S
C4            C8   1.579       .  S
C4            C6   1.601       .  S
C4           H10   1.107       .  S
C5           H11   1.084       .  S
C5            C6   1.350       .  D
C6           C13   1.580       .  S
C7           H12   1.087       .  S
C7            C8   1.345       .  D
C8          N205   1.475       .  S
C13          C15   1.513       .  S
C13          C17   1.506       .  S
C13          C16   1.600       .  S
C14          C41   1.584       .  S
C14          C18   1.533       .  S
C14          C20   1.510       .  S
C14          C19   1.592       .  S
C15          C23   1.371       .  A
C15          C18   1.403       .  A
C16          C19   1.432       .  A
C16        C1591   1.404   1_455  A
C17          C31   1.370       .  A
C17          C20   1.397       .  A
C18          C21   1.387       .  A
C19        C1589   1.405   1_455  A
C20          C28   1.370       .  A
C21          N22   1.352       .  A
C21          H34   1.078       .  S
N22         C167   1.432       .  S
N22          C23   1.338       .  A
C23          H24   1.079       .  S
C25        C1583   1.405       .  A
C25          N26   1.372       .  A
C25          H35   1.081       .  S
N26          C27   1.374       .  A
N26         N108   1.441       .  S
C27        C1580   1.404       .  A
C27          H33   1.081       .  S
C28          N29   1.332       .  A
C28          H30   1.079       .  S
N29          C85   1.418       .  S
N29          C31   1.339       .  A
C31          H32   1.071       .  S
C36          C37   1.562       .  S
C36          C42   1.548       .  S
C36          C40   1.544       .  S
C36         C365   1.531       .  S
C37          H44   1.075       .  S
C37          C38   1.364       .  D
C38          C39   1.589       .  S
C38         C142   1.574       .  S
C39          C43   1.584       .  S
C39          C41   1.603       .  S
C39          H45   1.108       .  S
C40          H46   1.082       .  S
C40          C41   1.359       .  D
C42          H47   1.087       .  S
C42          C43   1.346       .  D
C43         N228   1.480       .  S
C48          C50   1.520       .  S
C48          C52   1.567       .  S
C48          C51   1.665       .  S
C49         C132   1.513       .  S
C49          C53   1.525       .  S
C49          C55   1.516       .  S
C49          C54   1.542       .  S
C50          C58   1.378       .  A
C50          C53   1.385       .  A
C51          C62   1.452       .  A
C51          C54   1.423       .  A
C52          C66   1.402       .  A
C52          C55   1.370       .  A
C53          C56   1.374       .  A
C54         C842   1.391   1_545  A
C55          C63   1.375       .  A
C56          N57   1.344       .  A
C56          H69   1.076       .  S
N57          C88   1.441       .  S
N57          C58   1.353       .  A
C58          H59   1.073       .  S
C60         C836   1.391       .  A
C60          N61   1.353       .  A
C60          H70   1.075       .  S
N61         C844   1.401       .  A
N61         N155   1.458       .  S
C62         N843   1.401   1_545  A
C62         H850   1.081   1_545  S
C63          N64   1.350       .  A
C63          H65   1.076       .  S
N64          C76   1.468       .  S
N64          C66   1.361       .  A
C66          H67   1.059       .  S
H68         C844   1.081       .  S
C71          C72   1.552       .  S
C71          C77   1.532       .  S
C71          C75   1.546       .  S
C71         C351   1.512       .  S
C72          H79   1.081       .  S
C72          C73   1.372       .  D
C73          C74   1.597       .  S
C73          C96   1.566       .  S
C74          C78   1.602       .  S
C74          C76   1.558       .  S
C74          H80   1.110       .  S
C75          H81   1.087       .  S
C75          C76   1.352       .  D
C77          H82   1.086       .  S
C77          C78   1.335       .  D
C78         C189   1.562       .  S
C83          C84   1.545       .  S
C83          C89   1.543       .  S
C83          C87   1.566       .  S
C83         C340   1.504       .  S
C84          H91   1.079       .  S
C84          C85   1.349       .  D
C85          C86   1.519       .  S
C86          C90   1.561       .  S
C86          C88   1.519       .  S
C86          H92   1.112       .  S
C87          H93   1.083       .  S
C87          C88   1.348       .  D
C89          H94   1.084       .  S
C89          C90   1.354       .  D
C90         C213   1.511       .  S
C95         C179   1.579       .  S
C95          C97   1.511       .  S
C95          C99   1.512       .  S
C95          C98   1.607       .  S
C96         C100   1.509       .  S
C96         C102   1.523       .  S
C96         C101   1.583       .  S
C97         C105   1.376       .  A
C97         C100   1.395       .  A
C98         C109   1.411       .  A
C98         C101   1.432       .  A
C99         C113   1.377       .  A
C99         C102   1.399       .  A
C100        C103   1.370       .  A
C101        C107   1.398       .  A
C102        C110   1.378       .  A
C103        N104   1.338       .  A
C103        H116   1.071       .  S
N104        C123   1.419       .  S
N104        C105   1.336       .  A
C105        H106   1.077       .  S
C107        N108   1.370       .  A
C107        H117   1.081       .  S
N108        C109   1.377       .  A
C109        H115   1.081       .  S
C110        N111   1.345       .  A
C110        H112   1.080       .  S
N111        C135   1.425       .  S
N111        C113   1.342       .  A
C113        H114   1.079       .  S
C118        C119   1.535       .  S
C118        C124   1.570       .  S
C118        C122   1.555       .  S
C118        C323   1.520       .  S
C119        H126   1.083       .  S
C119        C120   1.342       .  D
C120        C121   1.562       .  S
C120        C143   1.514       .  S
C121        C125   1.530       .  S
C121        C123   1.513       .  S
C121        H127   1.111       .  S
C122        H128   1.080       .  S
C122        C123   1.353       .  D
C124        H129   1.085       .  S
C124        C125   1.372       .  D
C125        N198   1.460       .  S
C130        C131   1.523       .  S
C130        C136   1.565       .  S
C130        C134   1.543       .  S
C130        C312   1.505       .  S
C131        H138   1.075       .  S
C131        C132   1.343       .  D
C132        C133   1.556       .  S
C133        C137   1.533       .  S
C133        C135   1.530       .  S
C133        H139   1.111       .  S
C134        H140   1.082       .  S
C134        C135   1.359       .  D
C136        H141   1.085       .  S
C136        C137   1.365       .  D
C137        N221   1.452       .  S
C142        C144   1.512       .  S
C142        C146   1.567       .  S
C142        C145   1.652       .  S
C143        C147   1.520       .  S
C143        C149   1.531       .  S
C143        C148   1.551       .  S
C144        C152   1.373       .  A
C144        C147   1.376       .  A
C145        C156   1.445       .  A
C145        C148   1.419       .  A
C146        C160   1.404       .  A
C146        C149   1.372       .  A
C147        C150   1.372       .  A
C148        C154   1.395       .  A
C149        C157   1.388       .  A
C150        N151   1.339       .  A
C150        H163   1.076       .  S
N151        C170   1.433       .  S
N151        C152   1.353       .  A
C152        H153   1.067       .  S
C154        N155   1.366       .  A
C154        H164   1.081       .  S
N155        C156   1.397       .  A
C156        H162   1.081       .  S
C157        N158   1.358       .  A
C157        H159   1.078       .  S
N158        C182   1.485       .  S
N158        C160   1.367       .  A
C160        H161   1.062       .  S
C165        C166   1.558       .  S
C165        C171   1.528       .  S
C165        C169   1.562       .  S
C165        C295   1.502       .  S
C166        H173   1.079       .  S
C166        C167   1.362       .  D
C167        C168   1.525       .  S
C168        C172   1.563       .  S
C168        C170   1.515       .  S
C168        H174   1.111       .  S
C169        H175   1.083       .  S
C169        C170   1.344       .  D
C171        H176   1.083   1_554  S
C171        C172   1.345       .  D
C172        C190   1.505       .  S
C177        C178   1.526       .  S
C177        C183   1.536       .  S
C177        C181   1.563       .  S
C177        C284   1.505       .  S
C178        H185   1.083       .  S
C178        C179   1.345       .  D
C179        C180   1.617       .  S
C180        C184   1.613       .  S
C180        C182   1.570       .  S
C180        H186   1.110       .  S
C181        H187   1.084       .  S
C181        C182   1.372       .  D
C183        H188   1.085       .  S
C183        C184   1.339       .  D
C184        C212   1.568       .  S
C189        C191   1.546       .  S
C189        C193   1.548       .  S
C189        C192   1.631       .  S
C190        C194   1.519       .  S
C190        C196   1.517       .  S
C190        C195   1.574       .  S
C191        C199   1.393       .  A
C191        C194   1.374       .  A
C192        C195   1.422       .  A
C192        C594   1.436   1_554  A
C193        C207   1.393       .  A
C193        C196   1.357       .  A
C194        C197   1.382       .  A
C195        C592   1.405   1_554  A
C196        C204   1.379       .  A
C197        N198   1.351       .  A
C197        H210   1.078       .  S
N198        C199   1.366       .  A
C199        H200   1.073       .  S
C201        C586   1.405       .  A
C201        N202   1.369       .  A
C201        H211   1.080       .  S
N202        C203   1.390       .  A
N202        N225   1.458       .  S
C203        C583   1.436       .  A
C203        H209   1.081       .  S
C204        N205   1.353       .  A
C204        H206   1.070       .  S
N205        C207   1.372       .  A
C207        H208   1.076       .  S
C212        C214   1.533       .  S
C212        C216   1.540       .  S
C212        C215   1.644       .  S
C213        C217   1.516       .  S
C213        C219   1.533       .  S
C213        C218   1.565       .  S
C214        C222   1.380       .  A
C214        C217   1.364       .  A
C215        C226   1.438       .  A
C215        C218   1.427       .  A
C216        C230   1.389       .  A
C216        C219   1.363       .  A
C217        C220   1.378       .  A
C218        C224   1.401       .  A
C219        C227   1.384       .  A
C220        N221   1.352       .  A
C220        H233   1.077       .  S
N221        C222   1.362       .  A
C222        H223   1.064       .  S
C224        N225   1.368       .  A
C224        H234   1.081       .  S
N225        C226   1.393       .  A
C226        H232   1.081       .  S
C227        N228   1.359       .  A
C227        H229   1.074       .  S
N228        C230   1.370       .  A
C230        H231   1.076       .  S
N235        N236   1.329       .  A
N235       N2587   1.315       .  A
N235       Mn264   2.243       .  S
N236       C2198   1.360       .  A
N237        N238   1.314       .  A
N237       N2585   1.307   1_455  A
N237       Mn253   2.152       .  S
N238       C1026   1.351       .  A
N239        N240   1.308   1_565  A
N239       N2583   1.307       .  A
N239       Mn264   2.166   1_565  S
N240       C1808   1.347       .  A
N241        N242   1.310       .  A
N241       N2581   1.315   1_455  A
N241       Mn253   2.136       .  S
N242       C1416   1.339       .  A
C243       N2191   1.360   1_455  A
C243       N1415   1.339       .  A
C243        C382   1.475   1_556  S
C244       N1020   1.351   1_545  A
C244       N1804   1.347   1_455  A
C244        C337   1.481       .  S
N245        N246   1.329       .  A
N245       N1815   1.313       .  A
N245       Mn275   2.255       .  S
N246       C1818   1.361       .  A
N247        N248   1.314       .  A
N247       N1813   1.306       .  A
N247       Mn253   2.134       .  S
N248        C646   1.352       .  A
N249        N250   1.309       .  A
N249       N1811   1.306       .  A
N249       Mn275   2.197       .  S
N250       C2210   1.343       .  A
N251        N252   1.307       .  A
N251       N1809   1.313       .  A
N251       Mn253   2.115       .  S
N252        C254   1.338       .  A
Mn253     Cl1841   2.571   1_455  S
C254       N1810   1.361       .  A
C254        C368   1.479       .  S
C255        N639   1.352   1_554  A
C255       N2205   1.343       .  A
C255        C298   1.479       .  S
N256        N257   1.314       .  A
N256       N1044   1.310       .  A
N256       Mn264   2.192   1_565  S
N257        C265   1.355       .  A
N258        N259   1.310       .  A
N258       N1042   1.308       .  A
N258       Mn276   2.151       .  S
N259       C1439   1.347       .  A
N260        N261   1.316       .  A
N260       N1040   1.308   1_545  A
N260       Mn264   2.150       .  S
N261        C657   1.347       .  A
N262       N1038   1.310       .  A
N262       N1045   1.313       .  A
N262       Mn276   2.148       .  S
N263        C265   1.350       .  A
N263       N1044   1.313       .  A
Mn264     Cl1059   2.450   1_545  S
C265        C309   1.450       .  S
C266       N1432   1.347       .  A
C266        N652   1.347       .  A
C266        C354   1.446       .  S
N267        N268   1.316       .  A
N267        N273   1.308       .  A
N267       Mn275   2.174       .  S
N268        C669   1.354       .  A
N269        N270   1.312       .  A
N269        N271   1.310       .  A
N269       Mn276   2.162       .  S
N270        C279   1.347       .  A
N271        N272   1.319       .  A
N271       Mn275   2.168       .  S
N272        C279   1.348       .  A
N273        N274   1.313       .  A
N273       Mn276   2.155       .  S
N274        C669   1.353       .  A
Mn275      Cl277   2.440       .  S
Mn276      Cl277   2.540       .  S
Cl277     Mn1817   2.571       .  S
Cl277     Mn1046   2.450       .  S
C278        N659   1.354       .  A
C278        N665   1.353       .  A
C278        C326   1.463       .  S
C279        C281   1.450       .  S
C280        C281   1.391       .  A
C280        C285   1.396       .  A
C280        H287   1.084       .  S
C281        C282   1.411       .  A
C282        C283   1.389       .  A
C282        N289   1.434       .  S
C283        C284   1.398       .  A
C283        H288   1.082       .  S
C284        C285   1.421       .  A
C285        N286   1.438       .  S
N286        H290   1.045       .  S
N286        H291   1.045       .  S
N289        H292   1.043       .  S
N289        H293   1.043       .  S
C294        C295   1.410   1_556  A
C294        C299   1.405       .  A
C294        H301   1.083       .  S
C295        C296   1.387       .  A
C296        C297   1.378       .  A
C296        N303   1.432   1_554  S
C297        C298   1.424       .  A
C297        H302   1.083       .  S
C298        C299   1.414   1_554  A
C299        N691   1.438       .  S
N300        C690   1.438       .  S
N300        H304   1.046       .  S
N300        H305   1.046       .  S
N303        H306   1.045       .  S
N303        H307   1.047   1_556  S
C308        C309   1.396       .  A
C308        C313   1.393       .  A
C308        H315   1.084       .  S
C309        C310   1.404       .  A
C310        C311   1.386   1_565  A
C310        N317   1.433       .  S
C311        C312   1.406       .  A
C311        H316   1.083       .  S
C312        C313   1.426   1_545  A
C313        N314   1.433   1_565  S
N314        H318   1.040       .  S
N314        H319   1.046       .  S
N317        H320   1.045       .  S
N317        H321   1.046       .  S
C322        C323   1.414       .  A
C322        C327   1.396       .  A
C322        H329   1.074       .  S
C323        C324   1.427       .  A
C324        C325   1.386       .  A
C324        N331   1.435       .  S
C325        C326   1.396       .  A
C325        H330   1.085       .  S
C326        C327   1.402       .  A
C327        N719   1.439       .  S
N328        C718   1.439       .  S
N328        H332   1.048       .  S
N328        H333   1.043       .  S
N331        H334   1.042       .  S
N331        H335   1.042       .  S
C336        C337   1.412       .  A
C336        C341   1.387       .  A
C336        H343   1.084   1_455  S
C337        C338   1.424       .  A
C338        C339   1.400       .  A
C338        N345   1.432       .  S
C339        C340   1.402       .  A
C339        H344   1.084       .  S
C340        C341   1.399       .  A
C341        N342   1.432       .  S
N342        H346   1.046   1_455  S
N342        H347   1.046   1_455  S
N345        H348   1.046       .  S
N345        H349   1.046       .  S
C350        C351   1.413       .  A
C350        C355   1.375       .  A
C350        H357   1.084       .  S
C351        C352   1.416       .  A
C352        C353   1.407       .  A
C352        N359   1.435       .  S
C353        C354   1.404   1_554  A
C353        H358   1.084   1_554  S
C354        C355   1.393   1_556  A
C355        N356   1.435   1_554  S
N356       H1142   1.047       .  S
N356       H1143   1.044   1_556  S
N359        H362   1.045       .  S
N359        H363   1.046       .  S
H360       N1138   1.047       .  S
H361       N1138   1.044   1_554  S
C364        C365   1.419       .  A
C364        C369   1.407       .  A
C364        H371   1.084       .  S
C365        C366   1.408       .  A
C366        C367   1.396       .  A
C366        N373   1.430       .  S
C367        C368   1.409       .  A
C367        H372   1.084       .  S
C368        C369   1.401       .  A
C369        N370   1.436       .  S
N370        H374   1.046       .  S
N370        H375   1.045   1_455  S
N373        H376   1.045       .  S
N373        H377   1.046       .  S
C378        C379   1.396       .  A
C378        C383   1.399       .  A
C378        H385   1.079       .  S
C379        C380   1.427       .  A
C380        C381   1.402       .  A
C380        N387   1.433       .  S
C381        C382   1.391       .  A
C381        H386   1.084       .  S
C382        C383   1.415       .  A
C383        N775   1.428       .  S
N384        C774   1.428       .  S
N384        H388   1.046   1_545  S
N384        H389   1.045   1_545  S
N387        H390   1.046   1_455  S
N387        H391   1.046       .  S
C392        C393   1.569       .  S
C392        C398   1.544       .  S
C392        C396   1.538       .  S
C392        C770   1.525       .  S
C393        H400   1.082       .  S
C393        C394   1.373       .  D
C394        C395   1.605       .  S
C394        C439   1.598       .  S
C395        C399   1.579       .  S
C395        C397   1.601       .  S
C395        H401   1.107       .  S
C396        H402   1.084       .  S
C396        C397   1.350       .  D
C397        C404   1.580       .  S
C398        H403   1.087       .  S
C398        C399   1.345       .  D
C399        N596   1.475       .  S
C404        C406   1.513       .  S
C404        C408   1.506       .  S
C404        C407   1.600       .  S
C405        C432   1.584       .  S
C405        C409   1.533       .  S
C405        C411   1.510       .  S
C405        C410   1.592       .  S
C406        C414   1.371       .  A
C406        C409   1.403       .  A
C407       C1982   1.404   1_455  A
C407        C410   1.432       .  A
C408        C422   1.370       .  A
C408        C411   1.397       .  A
C409        C412   1.387       .  A
C410       C1980   1.405   1_455  A
C411        C419   1.370       .  A
C412        N413   1.352       .  A
C412        H425   1.078       .  S
N413        C558   1.432       .  S
N413        C414   1.338       .  A
C414        H415   1.079       .  S
C416       C1974   1.405       .  A
C416        N417   1.372       .  A
C416        H426   1.081       .  S
N417        C418   1.374       .  A
N417        N499   1.441       .  S
C418       C1971   1.404       .  A
C418        H424   1.081       .  S
C419        N420   1.332       .  A
C419        H421   1.079       .  S
N420        C476   1.418       .  S
N420        C422   1.339       .  A
C422        H423   1.071       .  S
C427        C428   1.562       .  S
C427        C433   1.548       .  S
C427        C431   1.544       .  S
C427        C756   1.531       .  S
C428        H435   1.075       .  S
C428        C429   1.364       .  D
C429        C430   1.589       .  S
C429        C533   1.574       .  S
C430        C434   1.584       .  S
C430        C432   1.603       .  S
C430        H436   1.108       .  S
C431        H437   1.082       .  S
C431        C432   1.359       .  D
C433        H438   1.087       .  S
C433        C434   1.346       .  D
C434        N619   1.480       .  S
C439        C441   1.520       .  S
C439        C443   1.567       .  S
C439        C442   1.665       .  S
C440        C523   1.513       .  S
C440        C444   1.525       .  S
C440        C446   1.516       .  S
C440        C445   1.542       .  S
C441        C449   1.378       .  A
C441        C444   1.385       .  A
C442        C453   1.452       .  A
C442        C445   1.423       .  A
C443        C457   1.402       .  A
C443        C446   1.370       .  A
C444        C447   1.374       .  A
C445       C1233   1.391   1_545  A
C446        C454   1.375       .  A
C447        N448   1.344       .  A
C447        H460   1.076       .  S
N448        C479   1.441       .  S
N448        C449   1.353       .  A
C449        H450   1.073       .  S
C451       C1227   1.391       .  A
C451        N452   1.353       .  A
C451        H461   1.075       .  S
N452       C1235   1.401       .  A
N452        N546   1.458       .  S
C453       N1234   1.401   1_545  A
C453       H1241   1.081   1_545  S
C454        N455   1.350       .  A
C454        H456   1.076       .  S
N455        C467   1.468       .  S
N455        C457   1.361       .  A
C457        H458   1.059       .  S
H459       C1235   1.081       .  S
C462        C463   1.552       .  S
C462        C468   1.532       .  S
C462        C466   1.546       .  S
C462        C742   1.512       .  S
C463        H470   1.081       .  S
C463        C464   1.372       .  D
C464        C465   1.597       .  S
C464        C487   1.566       .  S
C465        C469   1.602       .  S
C465        C467   1.558       .  S
C465        H471   1.110       .  S
C466        H472   1.087       .  S
C466        C467   1.352       .  D
C468        H473   1.086       .  S
C468        C469   1.335       .  D
C469        C580   1.562       .  S
C474        C475   1.545       .  S
C474        C480   1.543       .  S
C474        C478   1.566       .  S
C474        C731   1.504       .  S
C475        H482   1.079       .  S
C475        C476   1.349       .  D
C476        C477   1.519       .  S
C477        C481   1.561       .  S
C477        C479   1.519       .  S
C477        H483   1.112       .  S
C478        H484   1.083       .  S
C478        C479   1.348       .  D
C480        H485   1.084       .  S
C480        C481   1.354       .  D
C481        C604   1.511       .  S
C486        C570   1.579       .  S
C486        C488   1.511       .  S
C486        C490   1.512       .  S
C486        C489   1.607       .  S
C487        C491   1.509       .  S
C487        C493   1.523       .  S
C487        C492   1.583       .  S
C488        C496   1.376       .  A
C488        C491   1.395       .  A
C489        C500   1.411       .  A
C489        C492   1.432       .  A
C490        C504   1.377       .  A
C490        C493   1.399       .  A
C491        C494   1.370       .  A
C492        C498   1.398       .  A
C493        C501   1.378       .  A
C494        N495   1.338       .  A
C494        H507   1.071       .  S
N495        C514   1.419       .  S
N495        C496   1.336       .  A
C496        H497   1.077       .  S
C498        N499   1.370       .  A
C498        H508   1.081       .  S
N499        C500   1.377       .  A
C500        H506   1.081       .  S
C501        N502   1.345       .  A
C501        H503   1.080       .  S
N502        C526   1.425       .  S
N502        C504   1.342       .  A
C504        H505   1.079       .  S
C509        C510   1.535       .  S
C509        C515   1.570       .  S
C509        C513   1.555       .  S
C509        C714   1.520       .  S
C510        H517   1.083       .  S
C510        C511   1.342       .  D
C511        C512   1.562       .  S
C511        C534   1.514       .  S
C512        C516   1.530       .  S
C512        C514   1.513       .  S
C512        H518   1.111       .  S
C513        H519   1.080       .  S
C513        C514   1.353       .  D
C515        H520   1.085       .  S
C515        C516   1.372       .  D
C516        N589   1.460       .  S
C521        C522   1.523       .  S
C521        C527   1.565       .  S
C521        C525   1.543       .  S
C521        C703   1.505       .  S
C522        H529   1.075       .  S
C522        C523   1.343       .  D
C523        C524   1.556       .  S
C524        C528   1.533       .  S
C524        C526   1.530       .  S
C524        H530   1.111       .  S
C525        H531   1.082       .  S
C525        C526   1.359       .  D
C527        H532   1.085       .  S
C527        C528   1.365       .  D
C528        N612   1.452       .  S
C533        C535   1.512       .  S
C533        C537   1.567       .  S
C533        C536   1.652       .  S
C534        C538   1.520       .  S
C534        C540   1.531       .  S
C534        C539   1.551       .  S
C535        C543   1.373       .  A
C535        C538   1.376       .  A
C536        C547   1.445       .  A
C536        C539   1.419       .  A
C537        C551   1.404       .  A
C537        C540   1.372       .  A
C538        C541   1.372       .  A
C539        C545   1.395       .  A
C540        C548   1.388       .  A
C541        N542   1.339       .  A
C541        H554   1.076       .  S
N542        C561   1.433       .  S
N542        C543   1.353       .  A
C543        H544   1.067       .  S
C545        N546   1.366       .  A
C545        H555   1.081       .  S
N546        C547   1.397       .  A
C547        H553   1.081       .  S
C548        N549   1.358       .  A
C548        H550   1.078       .  S
N549        C573   1.485       .  S
N549        C551   1.367       .  A
C551        H552   1.062       .  S
C556        C557   1.558       .  S
C556        C562   1.528       .  S
C556        C560   1.562       .  S
C556        C686   1.502       .  S
C557        H564   1.079       .  S
C557        C558   1.362       .  D
C558        C559   1.525       .  S
C559        C563   1.563       .  S
C559        C561   1.515       .  S
C559        H565   1.111       .  S
C560        H566   1.083       .  S
C560        C561   1.344       .  D
C562        H567   1.083       .  S
C562        C563   1.345       .  D
C563        C581   1.505       .  S
C568        C569   1.526       .  S
C568        C574   1.536       .  S
C568        C572   1.563       .  S
C568        C675   1.505       .  S
C569        H576   1.083       .  S
C569        C570   1.345       .  D
C570        C571   1.617       .  S
C571        C575   1.613       .  S
C571        C573   1.570       .  S
C571        H577   1.110       .  S
C572        H578   1.084       .  S
C572        C573   1.372       .  D
C574        H579   1.085       .  S
C574        C575   1.339       .  D
C575        C603   1.568       .  S
C580        C582   1.546       .  S
C580        C584   1.548       .  S
C580        C583   1.631       .  S
C581        C585   1.519       .  S
C581        C587   1.517       .  S
C581        C586   1.574       .  S
C582        C590   1.393       .  A
C582        C585   1.374       .  A
C583        C586   1.422       .  A
C584        C598   1.393       .  A
C584        C587   1.357       .  A
C585        C588   1.382       .  A
C587        C595   1.379       .  A
C588        N589   1.351       .  A
C588        H601   1.078       .  S
N589        C590   1.366       .  A
C590        H591   1.073       .  S
C592        N593   1.369       .  A
C592        H602   1.080       .  S
N593        C594   1.390       .  A
N593        N616   1.458       .  S
C594        H600   1.081       .  S
C595        N596   1.353       .  A
C595        H597   1.070       .  S
N596        C598   1.372       .  A
C598        H599   1.076       .  S
C603        C605   1.533       .  S
C603        C607   1.540       .  S
C603        C606   1.644       .  S
C604        C608   1.516       .  S
C604        C610   1.533       .  S
C604        C609   1.565       .  S
C605        C613   1.380       .  A
C605        C608   1.364       .  A
C606        C617   1.438       .  A
C606        C609   1.427       .  A
C607        C621   1.389       .  A
C607        C610   1.363       .  A
C608        C611   1.378       .  A
C609        C615   1.401       .  A
C610        C618   1.384       .  A
C611        N612   1.352       .  A
C611        H624   1.077       .  S
N612        C613   1.362       .  A
C613        H614   1.064       .  S
C615        N616   1.368       .  A
C615        H625   1.081       .  S
N616        C617   1.393       .  A
C617        H623   1.081       .  S
C618        N619   1.359       .  A
C618        H620   1.074       .  S
N619        C621   1.370       .  A
C621        H622   1.076       .  S
N626        N627   1.329       .  A
N626       N2978   1.315       .  A
N626       Mn655   2.243       .  S
N627       C1807   1.360       .  A
N628       N2976   1.307   1_455  A
N628        N629   1.314       .  A
N628       Mn644   2.152       .  S
N629       C1417   1.351       .  A
N630       N2974   1.307       .  A
N630        N631   1.308   1_565  A
N630       Mn655   2.166   1_565  S
N631       C2199   1.347       .  A
N632       N2972   1.315   1_455  A
N632        N633   1.310       .  A
N632       Mn644   2.136       .  S
N633       C1025   1.339       .  A
C634       N1800   1.360   1_455  A
C634       N1024   1.339       .  A
C634        C773   1.475       .  S
C635       N1411   1.351   1_545  A
C635       N2195   1.347   1_455  A
C635        C728   1.481       .  S
N636       N2206   1.313       .  A
N636        N637   1.329       .  A
N636       Mn666   2.255       .  S
N637       C2209   1.361       .  A
N638        N639   1.314       .  A
N638       N2204   1.306       .  A
N638       Mn644   2.134       .  S
N640       N2202   1.306       .  A
N640        N641   1.309   1_556  A
N640       Mn666   2.197       .  S
N641       C1819   1.343       .  A
N642       N2200   1.313       .  A
N642        N643   1.307       .  A
N642       Mn644   2.115       .  S
N643        C645   1.338       .  A
Mn644     Cl2232   2.571   1_455  S
C645       N2201   1.361       .  A
C645        C759   1.479       .  S
C646       N1814   1.343       .  A
C646        C689   1.479       .  S
N647        N648   1.314       .  A
N647       N1435   1.310       .  A
N647       Mn655   2.192   1_565  S
N648        C656   1.355       .  A
N649       N1433   1.308       .  A
N649        N650   1.310       .  A
N649       Mn667   2.151       .  S
N650       C1048   1.347       .  A
N651       N1431   1.308   1_545  A
N651        N652   1.316       .  A
N651       Mn655   2.150       .  S
N653       N1429   1.310       .  A
N653       N1436   1.313       .  A
N653       Mn667   2.148       .  S
N654        C656   1.350       .  A
N654       N1435   1.313       .  A
Mn655     Cl1450   2.450   1_545  S
C656        C700   1.450       .  S
C657       N1041   1.347       .  A
C657        C745   1.446       .  S
N658        N659   1.316   1_556  A
N658        N664   1.308       .  A
N658       Mn666   2.174       .  S
N660        N661   1.312       .  A
N660        N662   1.310       .  A
N660       Mn667   2.162       .  S
N661        C670   1.347       .  A
N662        N663   1.319       .  A
N662       Mn666   2.168       .  S
N663        C670   1.348       .  A
N664        N665   1.313   1_556  A
N664       Mn667   2.155       .  S
Mn666      Cl668   2.440       .  S
Mn667      Cl668   2.540       .  S
Cl668     Mn2208   2.571       .  S
Cl668     Mn1437   2.450       .  S
C669        C717   1.463       .  S
C670        C672   1.450       .  S
C671        C672   1.391       .  A
C671        C676   1.396       .  A
C671        H678   1.084       .  S
C672        C673   1.411       .  A
C673        C674   1.389       .  A
C673        N680   1.434       .  S
C674        C675   1.398       .  A
C674        H679   1.082       .  S
C675        C676   1.421       .  A
C676        N677   1.438       .  S
N677        H681   1.045       .  S
N677        H682   1.045       .  S
N680        H683   1.043       .  S
N680        H684   1.043       .  S
C685        C686   1.410       .  A
C685        C690   1.405       .  A
C685        H692   1.083       .  S
C686        C687   1.387       .  A
C687        C688   1.378       .  A
C687        N694   1.432       .  S
C688        C689   1.424       .  A
C688        H693   1.083       .  S
C689        C690   1.414       .  A
N691        H695   1.046       .  S
N691        H696   1.046   1_556  S
N694        H697   1.045       .  S
N694        H698   1.047       .  S
C699        C700   1.396       .  A
C699        C704   1.393       .  A
C699        H706   1.084       .  S
C700        C701   1.404       .  A
C701        C702   1.386   1_565  A
C701        N708   1.433       .  S
C702        C703   1.406       .  A
C702        H707   1.083       .  S
C703        C704   1.426   1_545  A
C704        N705   1.433   1_565  S
N705        H709   1.040       .  S
N705        H710   1.046       .  S
N708        H711   1.045       .  S
N708        H712   1.046       .  S
C713        C714   1.414       .  A
C713        C718   1.396       .  A
C713        H720   1.074       .  S
C714        C715   1.427       .  A
C715        C716   1.386       .  A
C715        N722   1.435       .  S
C716        C717   1.396       .  A
C716        H721   1.085       .  S
C717        C718   1.402       .  A
N719        H723   1.048       .  S
N719        H724   1.043       .  S
N722        H725   1.042       .  S
N722        H726   1.042       .  S
C727        C728   1.412       .  A
C727        C732   1.387       .  A
C727        H734   1.084   1_455  S
C728        C729   1.424       .  A
C729        C730   1.400       .  A
C729        N736   1.432       .  S
C730        C731   1.402       .  A
C730        H735   1.084       .  S
C731        C732   1.399       .  A
C732        N733   1.432       .  S
N733        H737   1.046   1_455  S
N733        H738   1.046   1_455  S
N736        H739   1.046       .  S
N736        H740   1.046       .  S
C741        C742   1.413       .  A
C741        C746   1.375       .  A
C741        H748   1.084       .  S
C742        C743   1.416       .  A
C743        C744   1.407       .  A
C743        N750   1.435       .  S
C744        C745   1.404       .  A
C744        H749   1.084       .  S
C745        C746   1.393       .  A
C746        N747   1.435       .  S
N747       H1533   1.047       .  S
N747       H1534   1.044       .  S
N750        H753   1.045       .  S
N750        H754   1.046       .  S
H751       N1529   1.047       .  S
H752       N1529   1.044       .  S
C755        C756   1.419       .  A
C755        C760   1.407       .  A
C755        H762   1.084       .  S
C756        C757   1.408       .  A
C757        C758   1.396       .  A
C757        N764   1.430       .  S
C758        C759   1.409       .  A
C758        H763   1.084       .  S
C759        C760   1.401       .  A
C760        N761   1.436       .  S
N761        H765   1.046       .  S
N761        H766   1.045   1_455  S
N764        H767   1.045       .  S
N764        H768   1.046       .  S
C769        C770   1.396       .  A
C769        C774   1.399       .  A
C769        H776   1.079       .  S
C770        C771   1.427       .  A
C771        C772   1.402       .  A
C771        N778   1.433       .  S
C772        C773   1.391       .  A
C772        H777   1.084       .  S
C773        C774   1.415       .  A
N775        H779   1.046   1_545  S
N775        H780   1.045   1_545  S
N778        H781   1.046   1_455  S
N778        H782   1.046       .  S
C783        C784   1.569       .  S
C783        C789   1.544       .  S
C783        C787   1.538       .  S
C783       C1161   1.525       .  S
C784        H791   1.082       .  S
C784        C785   1.373       .  D
C785        C786   1.606       .  S
C785        C830   1.598       .  S
C786        C790   1.579       .  S
C786        C788   1.601       .  S
C786        H792   1.107       .  S
C787        H793   1.084       .  S
C787        C788   1.350       .  D
C788        C795   1.580       .  S
C789        H794   1.087       .  S
C789        C790   1.345       .  D
C790        N987   1.475       .  S
C795        C797   1.513       .  S
C795        C799   1.506       .  S
C795        C798   1.600       .  S
C796        C823   1.584       .  S
C796        C800   1.533       .  S
C796        C802   1.510       .  S
C796        C801   1.591       .  S
C797        C805   1.371       .  A
C797        C800   1.403       .  A
C798       C2373   1.404   1_455  A
C798        C801   1.432       .  A
C799        C813   1.370       .  A
C799        C802   1.397       .  A
C800        C803   1.387       .  A
C801       C2371   1.405   1_455  A
C802        C810   1.370       .  A
C803        N804   1.352       .  A
C803        H816   1.078       .  S
N804        C949   1.432       .  S
N804        C805   1.338       .  A
C805        H806   1.079       .  S
C807       C2365   1.405       .  A
C807        N808   1.372       .  A
C807        H817   1.081       .  S
N808        C809   1.374       .  A
N808        N890   1.441       .  S
C809       C2362   1.404       .  A
C809        H815   1.081       .  S
C810        N811   1.332       .  A
C810        H812   1.079       .  S
N811        C867   1.418       .  S
N811        C813   1.339       .  A
C813        H814   1.071       .  S
C818        C819   1.562       .  S
C818        C824   1.548       .  S
C818        C822   1.544       .  S
C818       C1147   1.531       .  S
C819        H826   1.075       .  S
C819        C820   1.364       .  D
C820        C821   1.589       .  S
C820        C924   1.574       .  S
C821        C825   1.584       .  S
C821        C823   1.603       .  S
C821        H827   1.108       .  S
C822        H828   1.082       .  S
C822        C823   1.359       .  D
C824        H829   1.087       .  S
C824        C825   1.346       .  D
C825       N1010   1.480       .  S
C830        C832   1.520       .  S
C830        C834   1.567       .  S
C830        C833   1.665       .  S
C831        C914   1.513       .  S
C831        C835   1.525       .  S
C831        C837   1.516       .  S
C831        C836   1.542       .  S
C832        C840   1.378       .  A
C832        C835   1.385       .  A
C833        C844   1.452       .  A
C833        C836   1.423       .  A
C834        C848   1.402       .  A
C834        C837   1.370       .  A
C835        C838   1.374       .  A
C837        C845   1.375       .  A
C838        N839   1.344       .  A
C838        H851   1.076       .  S
N839        C870   1.441       .  S
N839        C840   1.353       .  A
C840        H841   1.073       .  S
C842        N843   1.353       .  A
C842        H852   1.075       .  S
N843        N937   1.458       .  S
C845        N846   1.350       .  A
C845        H847   1.076       .  S
N846        C858   1.468       .  S
N846        C848   1.361       .  A
C848        H849   1.059       .  S
C853        C854   1.552       .  S
C853        C859   1.532       .  S
C853        C857   1.546       .  S
C853       C1133   1.512       .  S
C854        H861   1.081       .  S
C854        C855   1.372       .  D
C855        C856   1.597       .  S
C855        C878   1.566       .  S
C856        C860   1.602       .  S
C856        C858   1.558       .  S
C856        H862   1.110       .  S
C857        H863   1.087       .  S
C857        C858   1.352       .  D
C859        H864   1.086       .  S
C859        C860   1.335       .  D
C860        C971   1.562       .  S
C865        C866   1.545       .  S
C865        C871   1.543       .  S
C865        C869   1.566       .  S
C865       C1122   1.504       .  S
C866        H873   1.079       .  S
C866        C867   1.349       .  D
C867        C868   1.519       .  S
C868        C872   1.561       .  S
C868        C870   1.519       .  S
C868        H874   1.112       .  S
C869        H875   1.083       .  S
C869        C870   1.348       .  D
C871        H876   1.084       .  S
C871        C872   1.354       .  D
C872        C995   1.511       .  S
C877        C961   1.579       .  S
C877        C879   1.511       .  S
C877        C881   1.512       .  S
C877        C880   1.607       .  S
C878        C882   1.509       .  S
C878        C884   1.523       .  S
C878        C883   1.583       .  S
C879        C887   1.376       .  A
C879        C882   1.395       .  A
C880        C891   1.410       .  A
C880        C883   1.432       .  A
C881        C895   1.377       .  A
C881        C884   1.399       .  A
C882        C885   1.370       .  A
C883        C889   1.398       .  A
C884        C892   1.378       .  A
C885        N886   1.338       .  A
C885        H898   1.071       .  S
N886        C905   1.419       .  S
N886        C887   1.336       .  A
C887        H888   1.077       .  S
C889        N890   1.370       .  A
C889        H899   1.081       .  S
N890        C891   1.377       .  A
C891        H897   1.081       .  S
C892        N893   1.345       .  A
C892        H894   1.080       .  S
N893        C917   1.425       .  S
N893        C895   1.342       .  A
C895        H896   1.079       .  S
C900        C901   1.535       .  S
C900        C906   1.570       .  S
C900        C904   1.555       .  S
C900       C1105   1.520       .  S
C901        H908   1.083       .  S
C901        C902   1.342       .  D
C902        C903   1.562       .  S
C902        C925   1.514       .  S
C903        C907   1.530       .  S
C903        C905   1.513       .  S
C903        H909   1.111       .  S
C904        H910   1.080       .  S
C904        C905   1.353       .  D
C906        H911   1.085       .  S
C906        C907   1.372       .  D
C907        N980   1.460       .  S
C912        C913   1.523       .  S
C912        C918   1.565       .  S
C912        C916   1.543       .  S
C912       C1094   1.505       .  S
C913        H920   1.075       .  S
C913        C914   1.343       .  D
C914        C915   1.556       .  S
C915        C919   1.533       .  S
C915        C917   1.530       .  S
C915        H921   1.111       .  S
C916        H922   1.082       .  S
C916        C917   1.359       .  D
C918        H923   1.085       .  S
C918        C919   1.364       .  D
C919       N1003   1.451       .  S
C924        C926   1.512       .  S
C924        C928   1.567       .  S
C924        C927   1.652       .  S
C925        C929   1.520       .  S
C925        C931   1.531       .  S
C925        C930   1.551       .  S
C926        C934   1.373       .  A
C926        C929   1.376       .  A
C927        C938   1.445       .  A
C927        C930   1.419       .  A
C928        C942   1.404       .  A
C928        C931   1.372       .  A
C929        C932   1.372       .  A
C930        C936   1.395       .  A
C931        C939   1.388       .  A
C932        N933   1.339       .  A
C932        H945   1.076       .  S
N933        C952   1.433       .  S
N933        C934   1.353       .  A
C934        H935   1.067       .  S
C936        N937   1.366       .  A
C936        H946   1.081       .  S
N937        C938   1.397       .  A
C938        H944   1.081       .  S
C939        N940   1.358       .  A
C939        H941   1.078       .  S
N940        C964   1.485       .  S
N940        C942   1.367       .  A
C942        H943   1.062       .  S
C947        C948   1.558       .  S
C947        C953   1.528       .  S
C947        C951   1.562       .  S
C947       C1077   1.502       .  S
C948        H955   1.079       .  S
C948        C949   1.361       .  D
C949        C950   1.525       .  S
C950        C954   1.563       .  S
C950        C952   1.515       .  S
C950        H956   1.111       .  S
C951        H957   1.083       .  S
C951        C952   1.344       .  D
C953        H958   1.083   1_554  S
C953        C954   1.345       .  D
C954        C972   1.505       .  S
C959        C960   1.526       .  S
C959        C965   1.536       .  S
C959        C963   1.563       .  S
C959       C1066   1.506       .  S
C960        H967   1.083       .  S
C960        C961   1.345       .  D
C961        C962   1.617       .  S
C962        C966   1.613       .  S
C962        C964   1.570       .  S
C962        H968   1.110       .  S
C963        H969   1.084       .  S
C963        C964   1.372       .  D
C965        H970   1.085       .  S
C965        C966   1.339       .  D
C966        C994   1.568       .  S
C971        C973   1.546       .  S
C971        C975   1.548       .  S
C971        C974   1.631       .  S
C972        C976   1.519       .  S
C972        C978   1.517       .  S
C972        C977   1.574       .  S
C973        C981   1.393       .  A
C973        C976   1.374       .  A
C974       C1376   1.436   1_554  A
C974        C977   1.422       .  A
C975        C989   1.393       .  A
C975        C978   1.357       .  A
C976        C979   1.382       .  A
C977       C1374   1.405   1_554  A
C978        C986   1.379       .  A
C979        N980   1.351       .  A
C979        H992   1.078       .  S
N980        C981   1.366       .  A
C981        H982   1.073       .  S
C983       C1368   1.405       .  A
C983        N984   1.369       .  A
C983        H993   1.080       .  S
N984        C985   1.390       .  A
N984       N1007   1.458       .  S
C985       C1365   1.436       .  A
C985        H991   1.081       .  S
C986        N987   1.353       .  A
C986        H988   1.070       .  S
N987        C989   1.372       .  A
C989        H990   1.076       .  S
C994        C996   1.533       .  S
C994        C998   1.540       .  S
C994        C997   1.644       .  S
C995        C999   1.516       .  S
C995       C1001   1.533       .  S
C995       C1000   1.565       .  S
C996       C1004   1.380       .  A
C996        C999   1.364       .  A
C997       C1008   1.438       .  A
C997       C1000   1.427       .  A
C998       C1012   1.389       .  A
C998       C1001   1.363       .  A
C999       C1002   1.378       .  A
C1000      C1006   1.401       .  A
C1001      C1009   1.384       .  A
C1002      N1003   1.352       .  A
C1002      H1015   1.077       .  S
N1003      C1004   1.362       .  A
C1004      H1005   1.064       .  S
C1006      N1007   1.368       .  A
C1006      H1016   1.081       .  S
N1007      C1008   1.393       .  A
C1008      H1014   1.081       .  S
C1009      N1010   1.359       .  A
C1009      H1011   1.074       .  S
N1010      C1012   1.370       .  A
C1012      H1013   1.076       .  S
N1017      N1018   1.329       .  A
N1017      N1805   1.315       .  A
N1017     Mn1046   2.243       .  S
N1018      C2980   1.360       .  A
N1019      N1803   1.307   1_455  A
N1019      N1020   1.314       .  A
N1019     Mn1035   2.152       .  S
N1021      N1801   1.307       .  A
N1021      N1022   1.308       .  A
N1021     Mn1046   2.166       .  S
N1022      C2590   1.347       .  A
N1023      N1799   1.315   1_455  A
N1023      N1024   1.310       .  A
N1023     Mn1035   2.137   1_545  S
C1025      N2973   1.360   1_455  A
C1025      C1164   1.475   1_556  S
C1026      N2586   1.347   1_455  A
C1026      C1119   1.481       .  S
N1027      N2597   1.313       .  A
N1027      N1028   1.329       .  A
N1027     Mn1057   2.255       .  S
N1028      C2600   1.361       .  A
N1029      N1030   1.314       .  A
N1029      N2595   1.306       .  A
N1029     Mn1035   2.134       .  S
N1030      C1428   1.352       .  A
N1031      N2593   1.306       .  A
N1031      N1032   1.309       .  A
N1031     Mn1057   2.197       .  S
N1032      C2992   1.343       .  A
N1033      N2591   1.313       .  A
N1033      N1034   1.307       .  A
N1033     Mn1035   2.115       .  S
N1034      C1036   1.338       .  A
Mn1035    Cl2623   2.571   1_455  S
C1036      N2592   1.361       .  A
C1036      C1150   1.479       .  S
C1037      N1421   1.352   1_554  A
C1037      N2987   1.343       .  A
C1037      C1080   1.479       .  S
N1038      N1039   1.314       .  A
N1038     Mn1046   2.192       .  S
N1039      C1047   1.355       .  A
N1040      N1041   1.310   1_565  A
N1040     Mn1058   2.151       .  S
N1042      N1043   1.316       .  A
N1042     Mn1046   2.150       .  S
N1043      C1439   1.347       .  A
N1044     Mn1058   2.148       .  S
N1045      C1047   1.350       .  A
C1047      C1091   1.450       .  S
C1048      N1434   1.347       .  A
C1048      C1136   1.447       .  S
N1049      N1050   1.316       .  A
N1049      N1055   1.308       .  A
N1049     Mn1057   2.174       .  S
N1050      C1451   1.354       .  A
N1051      N1052   1.312       .  A
N1051      N1053   1.310       .  A
N1051     Mn1058   2.162       .  S
N1052      C1061   1.347       .  A
N1053      N1054   1.319       .  A
N1053     Mn1057   2.168       .  S
N1054      C1061   1.348       .  A
N1055      N1056   1.313       .  A
N1055     Mn1058   2.155       .  S
N1056      C1451   1.353       .  A
Mn1057    Cl1059   2.440       .  S
Mn1058    Cl1059   2.540       .  S
Cl1059    Mn2599   2.571       .  S
C1060      N1441   1.354       .  A
C1060      N1447   1.353       .  A
C1060      C1108   1.463       .  S
C1061      C1063   1.450       .  S
C1062      C1063   1.391       .  A
C1062      C1067   1.396       .  A
C1062      H1069   1.084       .  S
C1063      C1064   1.411       .  A
C1064      C1065   1.389       .  A
C1064      N1071   1.434       .  S
C1065      C1066   1.398       .  A
C1065      H1070   1.082       .  S
C1066      C1067   1.421       .  A
C1067      N1068   1.438       .  S
N1068      H1072   1.045       .  S
N1068      H1073   1.045       .  S
N1071      H1074   1.043       .  S
N1071      H1075   1.043       .  S
C1076      C1077   1.410   1_556  A
C1076      C1081   1.405       .  A
C1076      H1083   1.083       .  S
C1077      C1078   1.387       .  A
C1078      C1079   1.378       .  A
C1078      N1085   1.432   1_554  S
C1079      C1080   1.424       .  A
C1079      H1084   1.083       .  S
C1080      C1081   1.414   1_554  A
C1081      N1473   1.438       .  S
N1082      C1472   1.438       .  S
N1082      H1086   1.046       .  S
N1082      H1087   1.046       .  S
N1085      H1088   1.045       .  S
N1085      H1089   1.047   1_556  S
C1090      C1091   1.396       .  A
C1090      C1095   1.393       .  A
C1090      H1097   1.084       .  S
C1091      C1092   1.404       .  A
C1092      C1093   1.386       .  A
C1092      N1099   1.433       .  S
C1093      C1094   1.406       .  A
C1093      H1098   1.083       .  S
C1094      C1095   1.426       .  A
C1095      N1096   1.433       .  S
N1096      H1100   1.040       .  S
N1096      H1101   1.046       .  S
N1099      H1102   1.045       .  S
N1099      H1103   1.046       .  S
C1104      C1105   1.414       .  A
C1104      C1109   1.396       .  A
C1104      H1111   1.074       .  S
C1105      C1106   1.427       .  A
C1106      C1107   1.386       .  A
C1106      N1113   1.435       .  S
C1107      C1108   1.396       .  A
C1107      H1112   1.085       .  S
C1108      C1109   1.402       .  A
C1109      N1501   1.438       .  S
N1110      C1500   1.438       .  S
N1110      H1114   1.048       .  S
N1110      H1115   1.043       .  S
N1113      H1116   1.042       .  S
N1113      H1117   1.042       .  S
C1118      C1119   1.412       .  A
C1118      C1123   1.387       .  A
C1118      H1125   1.084   1_455  S
C1119      C1120   1.424       .  A
C1120      C1121   1.400       .  A
C1120      N1127   1.432       .  S
C1121      C1122   1.401       .  A
C1121      H1126   1.084       .  S
C1122      C1123   1.399       .  A
C1123      N1124   1.432       .  S
N1124      H1128   1.046   1_455  S
N1124      H1129   1.046   1_455  S
N1127      H1130   1.046       .  S
N1127      H1131   1.046       .  S
C1132      C1133   1.413       .  A
C1132      C1137   1.375       .  A
C1132      H1139   1.084       .  S
C1133      C1134   1.416       .  A
C1134      C1135   1.407       .  A
C1134      N1141   1.435       .  S
C1135      C1136   1.404   1_554  A
C1135      H1140   1.084   1_554  S
C1136      C1137   1.393   1_556  A
C1137      N1138   1.435   1_554  S
N1141      H1144   1.045       .  S
N1141      H1145   1.046       .  S
C1146      C1147   1.419       .  A
C1146      C1151   1.407       .  A
C1146      H1153   1.084       .  S
C1147      C1148   1.408       .  A
C1148      C1149   1.396       .  A
C1148      N1155   1.430       .  S
C1149      C1150   1.409       .  A
C1149      H1154   1.084       .  S
C1150      C1151   1.401       .  A
C1151      N1152   1.436       .  S
N1152      H1156   1.046       .  S
N1152      H1157   1.045   1_455  S
N1155      H1158   1.045       .  S
N1155      H1159   1.046       .  S
C1160      C1161   1.396       .  A
C1160      C1165   1.399       .  A
C1160      H1167   1.079       .  S
C1161      C1162   1.427       .  A
C1162      C1163   1.402       .  A
C1162      N1169   1.433       .  S
C1163      C1164   1.391       .  A
C1163      H1168   1.084       .  S
C1164      C1165   1.415       .  A
C1165      N1557   1.428       .  S
N1166      C1556   1.428       .  S
N1166      H1170   1.046       .  S
N1166      H1171   1.045       .  S
N1169      H1172   1.046   1_455  S
N1169      H1173   1.046       .  S
C1174      C1175   1.569       .  S
C1174      C1180   1.544       .  S
C1174      C1178   1.538       .  S
C1174      C1552   1.525       .  S
C1175      H1182   1.082       .  S
C1175      C1176   1.373       .  D
C1176      C1177   1.606       .  S
C1176      C1221   1.598       .  S
C1177      C1181   1.579       .  S
C1177      C1179   1.601       .  S
C1177      H1183   1.107       .  S
C1178      H1184   1.084       .  S
C1178      C1179   1.350       .  D
C1179      C1186   1.580       .  S
C1180      H1185   1.087       .  S
C1180      C1181   1.345       .  D
C1181      N1378   1.475       .  S
C1186      C1188   1.513       .  S
C1186      C1190   1.506       .  S
C1186      C1189   1.600       .  S
C1187      C1214   1.584       .  S
C1187      C1191   1.533       .  S
C1187      C1193   1.510       .  S
C1187      C1192   1.592       .  S
C1188      C1196   1.371       .  A
C1188      C1191   1.403       .  A
C1189      C2764   1.404   1_455  A
C1189      C1192   1.432       .  A
C1190      C1204   1.370       .  A
C1190      C1193   1.397       .  A
C1191      C1194   1.387       .  A
C1192      C2762   1.405   1_455  A
C1193      C1201   1.370       .  A
C1194      N1195   1.352       .  A
C1194      H1207   1.078       .  S
N1195      C1340   1.432       .  S
N1195      C1196   1.338       .  A
C1196      H1197   1.079       .  S
C1198      C2756   1.405       .  A
C1198      N1199   1.372       .  A
C1198      H1208   1.081       .  S
N1199      C1200   1.374       .  A
N1199      N1281   1.441       .  S
C1200      C2753   1.404       .  A
C1200      H1206   1.081       .  S
C1201      N1202   1.332       .  A
C1201      H1203   1.079       .  S
N1202      C1258   1.418       .  S
N1202      C1204   1.339       .  A
C1204      H1205   1.071       .  S
C1209      C1210   1.562       .  S
C1209      C1215   1.548       .  S
C1209      C1213   1.544       .  S
C1209      C1538   1.531       .  S
C1210      H1217   1.075       .  S
C1210      C1211   1.364       .  D
C1211      C1212   1.589       .  S
C1211      C1315   1.574       .  S
C1212      C1216   1.584       .  S
C1212      C1214   1.603       .  S
C1212      H1218   1.108       .  S
C1213      H1219   1.082       .  S
C1213      C1214   1.359       .  D
C1215      H1220   1.087       .  S
C1215      C1216   1.346       .  D
C1216      N1401   1.480       .  S
C1221      C1223   1.520       .  S
C1221      C1225   1.567       .  S
C1221      C1224   1.665       .  S
C1222      C1305   1.513       .  S
C1222      C1226   1.525       .  S
C1222      C1228   1.516       .  S
C1222      C1227   1.542       .  S
C1223      C1231   1.378       .  A
C1223      C1226   1.385       .  A
C1224      C1235   1.452       .  A
C1224      C1227   1.423       .  A
C1225      C1239   1.402       .  A
C1225      C1228   1.370       .  A
C1226      C1229   1.374       .  A
C1228      C1236   1.375       .  A
C1229      N1230   1.344       .  A
C1229      H1242   1.076       .  S
N1230      C1261   1.441       .  S
N1230      C1231   1.353       .  A
C1231      H1232   1.073       .  S
C1233      N1234   1.353       .  A
C1233      H1243   1.075       .  S
N1234      N1328   1.458       .  S
C1236      N1237   1.350       .  A
C1236      H1238   1.076       .  S
N1237      C1249   1.468       .  S
N1237      C1239   1.361       .  A
C1239      H1240   1.059       .  S
C1244      C1245   1.552       .  S
C1244      C1250   1.532       .  S
C1244      C1248   1.546       .  S
C1244      C1524   1.512       .  S
C1245      H1252   1.081       .  S
C1245      C1246   1.372       .  D
C1246      C1247   1.597       .  S
C1246      C1269   1.566       .  S
C1247      C1251   1.602       .  S
C1247      C1249   1.558       .  S
C1247      H1253   1.110       .  S
C1248      H1254   1.087       .  S
C1248      C1249   1.352       .  D
C1250      H1255   1.086       .  S
C1250      C1251   1.335       .  D
C1251      C1362   1.562       .  S
C1256      C1257   1.545       .  S
C1256      C1262   1.543       .  S
C1256      C1260   1.566       .  S
C1256      C1513   1.504       .  S
C1257      H1264   1.079       .  S
C1257      C1258   1.349       .  D
C1258      C1259   1.519       .  S
C1259      C1263   1.561       .  S
C1259      C1261   1.519       .  S
C1259      H1265   1.112       .  S
C1260      H1266   1.083       .  S
C1260      C1261   1.348       .  D
C1262      H1267   1.084       .  S
C1262      C1263   1.354       .  D
C1263      C1386   1.511       .  S
C1268      C1352   1.579       .  S
C1268      C1270   1.511       .  S
C1268      C1272   1.512       .  S
C1268      C1271   1.607       .  S
C1269      C1273   1.509       .  S
C1269      C1275   1.523       .  S
C1269      C1274   1.583       .  S
C1270      C1278   1.376       .  A
C1270      C1273   1.395       .  A
C1271      C1282   1.410       .  A
C1271      C1274   1.432       .  A
C1272      C1286   1.377       .  A
C1272      C1275   1.399       .  A
C1273      C1276   1.370       .  A
C1274      C1280   1.398       .  A
C1275      C1283   1.378       .  A
C1276      N1277   1.338       .  A
C1276      H1289   1.071       .  S
N1277      C1296   1.419       .  S
N1277      C1278   1.336       .  A
C1278      H1279   1.077       .  S
C1280      N1281   1.370       .  A
C1280      H1290   1.081       .  S
N1281      C1282   1.377       .  A
C1282      H1288   1.081       .  S
C1283      N1284   1.345       .  A
C1283      H1285   1.080       .  S
N1284      C1308   1.425       .  S
N1284      C1286   1.342       .  A
C1286      H1287   1.079       .  S
C1291      C1292   1.535       .  S
C1291      C1297   1.570       .  S
C1291      C1295   1.555       .  S
C1291      C1496   1.520       .  S
C1292      H1299   1.083       .  S
C1292      C1293   1.342       .  D
C1293      C1294   1.562       .  S
C1293      C1316   1.514       .  S
C1294      C1298   1.530       .  S
C1294      C1296   1.513       .  S
C1294      H1300   1.111       .  S
C1295      H1301   1.080       .  S
C1295      C1296   1.353       .  D
C1297      H1302   1.085       .  S
C1297      C1298   1.372       .  D
C1298      N1371   1.460       .  S
C1303      C1304   1.523       .  S
C1303      C1309   1.565       .  S
C1303      C1307   1.543       .  S
C1303      C1485   1.505       .  S
C1304      H1311   1.075       .  S
C1304      C1305   1.343       .  D
C1305      C1306   1.556       .  S
C1306      C1310   1.533       .  S
C1306      C1308   1.530       .  S
C1306      H1312   1.111       .  S
C1307      H1313   1.082       .  S
C1307      C1308   1.359       .  D
C1309      H1314   1.085       .  S
C1309      C1310   1.364       .  D
C1310      N1394   1.452       .  S
C1315      C1317   1.512       .  S
C1315      C1319   1.567       .  S
C1315      C1318   1.652       .  S
C1316      C1320   1.520       .  S
C1316      C1322   1.531       .  S
C1316      C1321   1.551       .  S
C1317      C1325   1.373       .  A
C1317      C1320   1.376       .  A
C1318      C1329   1.445       .  A
C1318      C1321   1.419       .  A
C1319      C1333   1.404       .  A
C1319      C1322   1.372       .  A
C1320      C1323   1.372       .  A
C1321      C1327   1.395       .  A
C1322      C1330   1.388       .  A
C1323      N1324   1.339       .  A
C1323      H1336   1.076       .  S
N1324      C1343   1.433       .  S
N1324      C1325   1.353       .  A
C1325      H1326   1.067       .  S
C1327      N1328   1.366       .  A
C1327      H1337   1.081       .  S
N1328      C1329   1.397       .  A
C1329      H1335   1.081       .  S
C1330      N1331   1.358       .  A
C1330      H1332   1.078       .  S
N1331      C1355   1.485       .  S
N1331      C1333   1.367       .  A
C1333      H1334   1.062       .  S
C1338      C1339   1.558       .  S
C1338      C1344   1.528       .  S
C1338      C1342   1.562       .  S
C1338      C1468   1.502       .  S
C1339      H1346   1.079       .  S
C1339      C1340   1.361       .  D
C1340      C1341   1.525       .  S
C1341      C1345   1.563       .  S
C1341      C1343   1.515       .  S
C1341      H1347   1.111       .  S
C1342      H1348   1.083       .  S
C1342      C1343   1.344       .  D
C1344      H1349   1.083       .  S
C1344      C1345   1.345       .  D
C1345      C1363   1.505       .  S
C1350      C1351   1.526       .  S
C1350      C1356   1.536       .  S
C1350      C1354   1.563       .  S
C1350      C1457   1.506       .  S
C1351      H1358   1.083       .  S
C1351      C1352   1.345       .  D
C1352      C1353   1.617       .  S
C1353      C1357   1.613       .  S
C1353      C1355   1.570       .  S
C1353      H1359   1.110       .  S
C1354      H1360   1.084       .  S
C1354      C1355   1.372       .  D
C1356      H1361   1.085       .  S
C1356      C1357   1.339       .  D
C1357      C1385   1.568       .  S
C1362      C1364   1.546       .  S
C1362      C1366   1.548       .  S
C1362      C1365   1.631       .  S
C1363      C1367   1.519       .  S
C1363      C1369   1.517       .  S
C1363      C1368   1.574       .  S
C1364      C1372   1.393       .  A
C1364      C1367   1.374       .  A
C1365      C1368   1.422       .  A
C1366      C1380   1.393       .  A
C1366      C1369   1.357       .  A
C1367      C1370   1.382       .  A
C1369      C1377   1.379       .  A
C1370      N1371   1.351       .  A
C1370      H1383   1.078       .  S
N1371      C1372   1.366       .  A
C1372      H1373   1.073       .  S
C1374      N1375   1.369       .  A
C1374      H1384   1.080       .  S
N1375      C1376   1.390       .  A
N1375      N1398   1.458       .  S
C1376      H1382   1.081       .  S
C1377      N1378   1.353       .  A
C1377      H1379   1.070       .  S
N1378      C1380   1.372       .  A
C1380      H1381   1.076       .  S
C1385      C1387   1.533       .  S
C1385      C1389   1.540       .  S
C1385      C1388   1.644       .  S
C1386      C1390   1.516       .  S
C1386      C1392   1.533       .  S
C1386      C1391   1.565       .  S
C1387      C1395   1.380       .  A
C1387      C1390   1.364       .  A
C1388      C1399   1.438       .  A
C1388      C1391   1.427       .  A
C1389      C1403   1.389       .  A
C1389      C1392   1.363       .  A
C1390      C1393   1.378       .  A
C1391      C1397   1.401       .  A
C1392      C1400   1.384       .  A
C1393      N1394   1.352       .  A
C1393      H1406   1.077       .  S
N1394      C1395   1.362       .  A
C1395      H1396   1.064       .  S
C1397      N1398   1.368       .  A
C1397      H1407   1.081       .  S
N1398      C1399   1.393       .  A
C1399      H1405   1.081       .  S
C1400      N1401   1.359       .  A
C1400      H1402   1.074       .  S
N1401      C1403   1.370       .  A
C1403      H1404   1.076       .  S
N1408      N1409   1.329       .  A
N1408      N2196   1.315       .  A
N1408     Mn1437   2.243       .  S
N1409      C2589   1.360       .  A
N1410      N2194   1.307   1_455  A
N1410      N1411   1.314       .  A
N1410     Mn1426   2.152       .  S
N1412      N2192   1.307       .  A
N1412      N1413   1.308       .  A
N1412     Mn1437   2.166       .  S
N1413      C2981   1.347       .  A
N1414      N2190   1.315   1_455  A
N1414      N1415   1.310       .  A
N1414     Mn1426   2.137   1_545  S
C1416      N2582   1.360   1_455  A
C1416      C1555   1.475       .  S
C1417      N2977   1.347   1_455  A
C1417      C1510   1.481       .  S
N1418      N2988   1.313       .  A
N1418      N1419   1.329       .  A
N1418     Mn1448   2.255       .  S
N1419      C2991   1.361       .  A
N1420      N1421   1.314       .  A
N1420      N2986   1.306       .  A
N1420     Mn1426   2.134       .  S
N1422      N2984   1.306       .  A
N1422      N1423   1.309   1_556  A
N1422     Mn1448   2.197       .  S
N1423      C2601   1.343       .  A
N1424      N2982   1.313       .  A
N1424      N1425   1.307       .  A
N1424     Mn1426   2.115       .  S
N1425      C1427   1.338       .  A
Mn1426    Cl3014   2.571   1_455  S
C1427      N2983   1.361       .  A
C1427      C1541   1.479       .  S
C1428      N2596   1.343       .  A
C1428      C1471   1.480       .  S
N1429      N1430   1.314       .  A
N1429     Mn1437   2.192       .  S
N1430      C1438   1.355       .  A
N1431      N1432   1.310   1_565  A
N1431     Mn1449   2.151       .  S
N1433      N1434   1.316       .  A
N1433     Mn1437   2.150       .  S
N1435     Mn1449   2.148       .  S
N1436      C1438   1.350       .  A
C1438      C1482   1.450       .  S
C1439      C1527   1.447       .  S
N1440      N1441   1.316   1_556  A
N1440      N1446   1.308       .  A
N1440     Mn1448   2.174       .  S
N1442      N1443   1.312       .  A
N1442      N1444   1.310       .  A
N1442     Mn1449   2.162       .  S
N1443      C1452   1.347       .  A
N1444      N1445   1.319       .  A
N1444     Mn1448   2.168       .  S
N1445      C1452   1.348       .  A
N1446      N1447   1.313   1_556  A
N1446     Mn1449   2.155       .  S
Mn1448    Cl1450   2.440       .  S
Mn1449    Cl1450   2.540       .  S
Cl1450    Mn2990   2.571       .  S
C1451      C1499   1.463       .  S
C1452      C1454   1.450       .  S
C1453      C1454   1.391       .  A
C1453      C1458   1.396       .  A
C1453      H1460   1.084       .  S
C1454      C1455   1.411       .  A
C1455      C1456   1.389       .  A
C1455      N1462   1.434       .  S
C1456      C1457   1.398       .  A
C1456      H1461   1.082       .  S
C1457      C1458   1.421       .  A
C1458      N1459   1.438       .  S
N1459      H1463   1.045       .  S
N1459      H1464   1.045       .  S
N1462      H1465   1.043       .  S
N1462      H1466   1.043       .  S
C1467      C1468   1.410       .  A
C1467      C1472   1.405       .  A
C1467      H1474   1.083       .  S
C1468      C1469   1.387       .  A
C1469      C1470   1.378       .  A
C1469      N1476   1.432       .  S
C1470      C1471   1.424       .  A
C1470      H1475   1.083       .  S
C1471      C1472   1.414       .  A
N1473      H1477   1.046       .  S
N1473      H1478   1.046   1_556  S
N1476      H1479   1.045       .  S
N1476      H1480   1.047       .  S
C1481      C1482   1.396       .  A
C1481      C1486   1.393       .  A
C1481      H1488   1.084       .  S
C1482      C1483   1.404       .  A
C1483      C1484   1.386       .  A
C1483      N1490   1.433       .  S
C1484      C1485   1.406       .  A
C1484      H1489   1.083       .  S
C1485      C1486   1.426       .  A
C1486      N1487   1.433       .  S
N1487      H1491   1.040       .  S
N1487      H1492   1.046       .  S
N1490      H1493   1.045       .  S
N1490      H1494   1.046       .  S
C1495      C1496   1.414       .  A
C1495      C1500   1.396       .  A
C1495      H1502   1.074       .  S
C1496      C1497   1.427       .  A
C1497      C1498   1.386       .  A
C1497      N1504   1.435       .  S
C1498      C1499   1.396       .  A
C1498      H1503   1.085       .  S
C1499      C1500   1.402       .  A
N1501      H1505   1.048       .  S
N1501      H1506   1.043       .  S
N1504      H1507   1.042       .  S
N1504      H1508   1.042       .  S
C1509      C1510   1.412       .  A
C1509      C1514   1.387       .  A
C1509      H1516   1.084   1_455  S
C1510      C1511   1.424       .  A
C1511      C1512   1.400       .  A
C1511      N1518   1.432       .  S
C1512      C1513   1.402       .  A
C1512      H1517   1.084       .  S
C1513      C1514   1.399       .  A
C1514      N1515   1.432       .  S
N1515      H1519   1.046   1_455  S
N1515      H1520   1.046   1_455  S
N1518      H1521   1.046       .  S
N1518      H1522   1.046       .  S
C1523      C1524   1.413       .  A
C1523      C1528   1.375       .  A
C1523      H1530   1.084       .  S
C1524      C1525   1.416       .  A
C1525      C1526   1.407       .  A
C1525      N1532   1.435       .  S
C1526      C1527   1.404       .  A
C1526      H1531   1.084       .  S
C1527      C1528   1.393       .  A
C1528      N1529   1.435       .  S
N1532      H1535   1.045       .  S
N1532      H1536   1.046       .  S
C1537      C1538   1.419       .  A
C1537      C1542   1.407       .  A
C1537      H1544   1.084       .  S
C1538      C1539   1.408       .  A
C1539      C1540   1.396       .  A
C1539      N1546   1.430       .  S
C1540      C1541   1.409       .  A
C1540      H1545   1.084       .  S
C1541      C1542   1.401       .  A
C1542      N1543   1.436       .  S
N1543      H1547   1.046       .  S
N1543      H1548   1.045   1_455  S
N1546      H1549   1.045       .  S
N1546      H1550   1.046       .  S
C1551      C1552   1.396       .  A
C1551      C1556   1.399       .  A
C1551      H1558   1.079       .  S
C1552      C1553   1.427       .  A
C1553      C1554   1.402       .  A
C1553      N1560   1.433       .  S
C1554      C1555   1.391       .  A
C1554      H1559   1.084       .  S
C1555      C1556   1.415       .  A
N1557      H1561   1.046       .  S
N1557      H1562   1.045       .  S
N1560      H1563   1.046   1_455  S
N1560      H1564   1.046       .  S
C1565      C1566   1.569       .  S
C1565      C1571   1.544       .  S
C1565      C1569   1.538       .  S
C1565      C1943   1.525       .  S
C1566      H1573   1.082       .  S
C1566      C1567   1.373       .  D
C1567      C1568   1.605       .  S
C1567      C1612   1.598       .  S
C1568      C1572   1.579       .  S
C1568      C1570   1.601       .  S
C1568      H1574   1.107       .  S
C1569      H1575   1.084       .  S
C1569      C1570   1.350       .  D
C1570      C1577   1.580       .  S
C1571      H1576   1.087       .  S
C1571      C1572   1.345       .  D
C1572      N1769   1.475       .  S
C1577      C1579   1.513       .  S
C1577      C1581   1.506       .  S
C1577      C1580   1.600       .  S
C1578      C1605   1.584       .  S
C1578      C1582   1.533       .  S
C1578      C1584   1.510       .  S
C1578      C1583   1.592       .  S
C1579      C1587   1.371       .  A
C1579      C1582   1.403       .  A
C1580      C1583   1.432       .  A
C1581      C1595   1.370       .  A
C1581      C1584   1.397       .  A
C1582      C1585   1.387       .  A
C1584      C1592   1.370       .  A
C1585      N1586   1.352       .  A
C1585      H1598   1.078       .  S
N1586      C1731   1.432       .  S
N1586      C1587   1.338       .  A
C1587      H1588   1.079       .  S
C1589      N1590   1.372       .  A
C1589      H1599   1.081       .  S
N1590      C1591   1.374       .  A
N1590      N1672   1.441       .  S
C1591      H1597   1.081       .  S
C1592      N1593   1.332       .  A
C1592      H1594   1.079       .  S
N1593      C1649   1.418       .  S
N1593      C1595   1.339       .  A
C1595      H1596   1.071       .  S
C1600      C1601   1.562       .  S
C1600      C1606   1.548       .  S
C1600      C1604   1.544       .  S
C1600      C1929   1.531       .  S
C1601      H1608   1.075       .  S
C1601      C1602   1.364       .  D
C1602      C1603   1.589       .  S
C1602      C1706   1.574       .  S
C1603      C1607   1.584       .  S
C1603      C1605   1.603       .  S
C1603      H1609   1.108       .  S
C1604      H1610   1.082       .  S
C1604      C1605   1.359       .  D
C1606      H1611   1.087       .  S
C1606      C1607   1.346       .  D
C1607      N1792   1.480       .  S
C1612      C1614   1.520       .  S
C1612      C1616   1.567       .  S
C1612      C1615   1.665       .  S
C1613      C1696   1.513       .  S
C1613      C1617   1.525       .  S
C1613      C1619   1.516       .  S
C1613      C1618   1.542       .  S
C1614      C1622   1.378       .  A
C1614      C1617   1.385       .  A
C1615      C1626   1.452       .  A
C1615      C1618   1.423       .  A
C1616      C1630   1.402       .  A
C1616      C1619   1.370       .  A
C1617      C1620   1.374       .  A
C1618      C2406   1.391   1_545  A
C1619      C1627   1.375       .  A
C1620      N1621   1.344       .  A
C1620      H1633   1.076       .  S
N1621      C1652   1.441       .  S
N1621      C1622   1.353       .  A
C1622      H1623   1.073       .  S
C1624      C2400   1.391       .  A
C1624      N1625   1.353       .  A
C1624      H1634   1.075       .  S
N1625      C2408   1.401       .  A
N1625      N1719   1.458       .  S
C1626      N2407   1.401   1_545  A
C1626      H2414   1.081   1_545  S
C1627      N1628   1.350       .  A
C1627      H1629   1.076       .  S
N1628      C1640   1.468       .  S
N1628      C1630   1.361       .  A
C1630      H1631   1.059       .  S
H1632      C2408   1.081       .  S
C1635      C1636   1.552       .  S
C1635      C1641   1.532       .  S
C1635      C1639   1.546       .  S
C1635      C1915   1.512       .  S
C1636      H1643   1.081       .  S
C1636      C1637   1.372       .  D
C1637      C1638   1.597       .  S
C1637      C1660   1.566       .  S
C1638      C1642   1.602       .  S
C1638      C1640   1.558       .  S
C1638      H1644   1.110       .  S
C1639      H1645   1.087       .  S
C1639      C1640   1.352       .  D
C1641      H1646   1.086       .  S
C1641      C1642   1.335       .  D
C1642      C1753   1.562       .  S
C1647      C1648   1.545       .  S
C1647      C1653   1.543       .  S
C1647      C1651   1.566       .  S
C1647      C1904   1.504       .  S
C1648      H1655   1.079       .  S
C1648      C1649   1.349       .  D
C1649      C1650   1.519       .  S
C1650      C1654   1.561       .  S
C1650      C1652   1.519       .  S
C1650      H1656   1.112       .  S
C1651      H1657   1.083       .  S
C1651      C1652   1.348       .  D
C1653      H1658   1.084       .  S
C1653      C1654   1.354       .  D
C1654      C1777   1.511       .  S
C1659      C1743   1.579       .  S
C1659      C1661   1.511       .  S
C1659      C1663   1.512       .  S
C1659      C1662   1.607       .  S
C1660      C1664   1.509       .  S
C1660      C1666   1.523       .  S
C1660      C1665   1.583       .  S
C1661      C1669   1.376       .  A
C1661      C1664   1.395       .  A
C1662      C1673   1.411       .  A
C1662      C1665   1.432       .  A
C1663      C1677   1.377       .  A
C1663      C1666   1.399       .  A
C1664      C1667   1.370       .  A
C1665      C1671   1.398       .  A
C1666      C1674   1.378       .  A
C1667      N1668   1.338       .  A
C1667      H1680   1.071       .  S
N1668      C1687   1.419       .  S
N1668      C1669   1.336       .  A
C1669      H1670   1.077       .  S
C1671      N1672   1.370       .  A
C1671      H1681   1.081       .  S
N1672      C1673   1.377       .  A
C1673      H1679   1.081       .  S
C1674      N1675   1.345       .  A
C1674      H1676   1.080       .  S
N1675      C1699   1.425       .  S
N1675      C1677   1.342       .  A
C1677      H1678   1.079       .  S
C1682      C1683   1.535       .  S
C1682      C1688   1.570       .  S
C1682      C1686   1.555       .  S
C1682      C1887   1.520       .  S
C1683      H1690   1.083       .  S
C1683      C1684   1.342       .  D
C1684      C1685   1.562       .  S
C1684      C1707   1.514       .  S
C1685      C1689   1.530       .  S
C1685      C1687   1.513       .  S
C1685      H1691   1.111       .  S
C1686      H1692   1.080       .  S
C1686      C1687   1.353       .  D
C1688      H1693   1.085       .  S
C1688      C1689   1.372       .  D
C1689      N1762   1.460       .  S
C1694      C1695   1.523       .  S
C1694      C1700   1.565       .  S
C1694      C1698   1.543       .  S
C1694      C1876   1.505       .  S
C1695      H1702   1.075       .  S
C1695      C1696   1.343       .  D
C1696      C1697   1.556       .  S
C1697      C1701   1.533       .  S
C1697      C1699   1.530       .  S
C1697      H1703   1.111       .  S
C1698      H1704   1.082       .  S
C1698      C1699   1.359       .  D
C1700      H1705   1.085       .  S
C1700      C1701   1.365       .  D
C1701      N1785   1.452       .  S
C1706      C1708   1.512       .  S
C1706      C1710   1.567       .  S
C1706      C1709   1.652       .  S
C1707      C1711   1.520       .  S
C1707      C1713   1.531       .  S
C1707      C1712   1.551       .  S
C1708      C1716   1.373       .  A
C1708      C1711   1.376       .  A
C1709      C1720   1.445       .  A
C1709      C1712   1.419       .  A
C1710      C1724   1.404       .  A
C1710      C1713   1.372       .  A
C1711      C1714   1.372       .  A
C1712      C1718   1.395       .  A
C1713      C1721   1.388       .  A
C1714      N1715   1.339       .  A
C1714      H1727   1.076       .  S
N1715      C1734   1.433       .  S
N1715      C1716   1.353       .  A
C1716      H1717   1.067       .  S
C1718      N1719   1.366       .  A
C1718      H1728   1.081       .  S
N1719      C1720   1.397       .  A
C1720      H1726   1.081       .  S
C1721      N1722   1.358       .  A
C1721      H1723   1.078       .  S
N1722      C1746   1.485       .  S
N1722      C1724   1.367       .  A
C1724      H1725   1.062       .  S
C1729      C1730   1.558       .  S
C1729      C1735   1.528       .  S
C1729      C1733   1.562       .  S
C1729      C1859   1.502       .  S
C1730      H1737   1.079       .  S
C1730      C1731   1.362       .  D
C1731      C1732   1.525       .  S
C1732      C1736   1.563       .  S
C1732      C1734   1.515       .  S
C1732      H1738   1.111       .  S
C1733      H1739   1.083       .  S
C1733      C1734   1.344       .  D
C1735      H1740   1.083   1_554  S
C1735      C1736   1.345       .  D
C1736      C1754   1.505       .  S
C1741      C1742   1.526       .  S
C1741      C1747   1.536       .  S
C1741      C1745   1.563       .  S
C1741      C1848   1.505       .  S
C1742      H1749   1.083       .  S
C1742      C1743   1.345       .  D
C1743      C1744   1.617       .  S
C1744      C1748   1.613       .  S
C1744      C1746   1.570       .  S
C1744      H1750   1.110       .  S
C1745      H1751   1.084       .  S
C1745      C1746   1.372       .  D
C1747      H1752   1.085       .  S
C1747      C1748   1.339       .  D
C1748      C1776   1.568       .  S
C1753      C1755   1.546       .  S
C1753      C1757   1.548       .  S
C1753      C1756   1.631       .  S
C1754      C1758   1.519       .  S
C1754      C1760   1.517       .  S
C1754      C1759   1.574       .  S
C1755      C1763   1.393       .  A
C1755      C1758   1.374       .  A
C1756      C2158   1.436   1_554  A
C1756      C1759   1.422       .  A
C1757      C1771   1.393       .  A
C1757      C1760   1.357       .  A
C1758      C1761   1.382       .  A
C1759      C2156   1.405   1_554  A
C1760      C1768   1.379       .  A
C1761      N1762   1.351       .  A
C1761      H1774   1.078       .  S
N1762      C1763   1.366       .  A
C1763      H1764   1.073       .  S
C1765      C2150   1.405       .  A
C1765      N1766   1.369       .  A
C1765      H1775   1.080       .  S
N1766      C1767   1.390       .  A
N1766      N1789   1.458       .  S
C1767      C2147   1.436       .  A
C1767      H1773   1.081       .  S
C1768      N1769   1.353       .  A
C1768      H1770   1.070       .  S
N1769      C1771   1.372       .  A
C1771      H1772   1.076       .  S
C1776      C1778   1.533       .  S
C1776      C1780   1.540       .  S
C1776      C1779   1.644       .  S
C1777      C1781   1.516       .  S
C1777      C1783   1.533       .  S
C1777      C1782   1.565       .  S
C1778      C1786   1.380       .  A
C1778      C1781   1.364       .  A
C1779      C1790   1.438       .  A
C1779      C1782   1.427       .  A
C1780      C1794   1.389       .  A
C1780      C1783   1.363       .  A
C1781      C1784   1.378       .  A
C1782      C1788   1.401       .  A
C1783      C1791   1.384       .  A
C1784      N1785   1.352       .  A
C1784      H1797   1.077       .  S
N1785      C1786   1.362       .  A
C1786      H1787   1.064       .  S
C1788      N1789   1.368       .  A
C1788      H1798   1.081       .  S
N1789      C1790   1.393       .  A
C1790      H1796   1.081       .  S
C1791      N1792   1.359       .  A
C1791      H1793   1.074       .  S
N1792      C1794   1.370       .  A
C1794      H1795   1.076       .  S
N1799      N1800   1.329       .  A
N1799     Mn1828   2.243       .  S
N1801      N1802   1.314       .  A
N1801     Mn1817   2.152       .  S
N1802      C2590   1.351       .  A
N1803      N1804   1.308   1_565  A
N1803     Mn1828   2.166   1_565  S
N1805      N1806   1.310       .  A
N1805     Mn1817   2.136       .  S
N1806      C2980   1.339       .  A
C1807      N2979   1.339       .  A
C1807      C1946   1.475   1_556  S
C1808      N2584   1.351   1_545  A
C1808      C1901   1.481       .  S
N1809      N1810   1.329       .  A
N1809     Mn1839   2.255   1_455  S
N1811      N1812   1.314       .  A
N1811     Mn1817   2.134       .  S
N1812      C2210   1.352       .  A
N1813      N1814   1.309       .  A
N1813     Mn1839   2.197   1_455  S
N1815      N1816   1.307       .  A
N1815     Mn1817   2.115       .  S
N1816      C1818   1.338       .  A
C1818      C1932   1.479       .  S
C1819      N2203   1.352   1_554  A
C1819      C1862   1.479       .  S
N1820      N1821   1.314       .  A
N1820      N2608   1.310       .  A
N1820     Mn1828   2.192   1_565  S
N1821      C1829   1.355       .  A
N1822      N2606   1.308       .  A
N1822      N1823   1.310       .  A
N1822     Mn1840   2.151       .  S
N1823      C3003   1.347       .  A
N1824      N2604   1.308   1_545  A
N1824      N1825   1.316       .  A
N1824     Mn1828   2.150       .  S
N1825      C2221   1.347       .  A
N1826      N2602   1.310       .  A
N1826      N2609   1.313       .  A
N1826     Mn1840   2.148       .  S
N1827      C1829   1.350       .  A
N1827      N2608   1.313       .  A
Mn1828    Cl2623   2.450   1_545  S
C1829      C1873   1.450       .  S
C1830      N2996   1.347       .  A
C1830      N2216   1.347       .  A
C1830      C1918   1.446       .  S
N1831      N1832   1.316       .  A
N1831      N1837   1.308       .  A
N1831     Mn1839   2.174       .  S
N1832      C2233   1.354       .  A
N1833      N1834   1.312       .  A
N1833      N1835   1.310       .  A
N1833     Mn1840   2.162       .  S
N1834      C1843   1.347       .  A
N1835      N1836   1.319       .  A
N1835     Mn1839   2.168       .  S
N1836      C1843   1.348       .  A
N1837      N1838   1.313       .  A
N1837     Mn1840   2.155       .  S
N1838      C2233   1.353       .  A
Mn1839    Cl1841   2.440       .  S
Mn1840    Cl1841   2.540       .  S
Cl1841    Mn2610   2.450       .  S
C1842      N2223   1.354       .  A
C1842      N2229   1.353       .  A
C1842      C1890   1.463       .  S
C1843      C1845   1.450       .  S
C1844      C1845   1.391       .  A
C1844      C1849   1.396       .  A
C1844      H1851   1.084       .  S
C1845      C1846   1.411       .  A
C1846      C1847   1.389       .  A
C1846      N1853   1.434       .  S
C1847      C1848   1.398       .  A
C1847      H1852   1.082       .  S
C1848      C1849   1.421       .  A
C1849      N1850   1.438       .  S
N1850      H1854   1.045       .  S
N1850      H1855   1.045       .  S
N1853      H1856   1.043       .  S
N1853      H1857   1.043       .  S
C1858      C1859   1.410   1_556  A
C1858      C1863   1.405       .  A
C1858      H1865   1.083       .  S
C1859      C1860   1.387       .  A
C1860      C1861   1.378       .  A
C1860      N1867   1.432   1_554  S
C1861      C1862   1.424       .  A
C1861      H1866   1.083       .  S
C1862      C1863   1.414   1_554  A
C1863      N2255   1.438       .  S
N1864      C2254   1.438       .  S
N1864      H1868   1.046       .  S
N1864      H1869   1.046       .  S
N1867      H1870   1.045       .  S
N1867      H1871   1.047   1_556  S
C1872      C1873   1.396       .  A
C1872      C1877   1.393       .  A
C1872      H1879   1.084       .  S
C1873      C1874   1.404       .  A
C1874      C1875   1.386   1_565  A
C1874      N1881   1.433       .  S
C1875      C1876   1.406       .  A
C1875      H1880   1.083       .  S
C1876      C1877   1.426   1_545  A
C1877      N1878   1.433   1_565  S
N1878      H1882   1.040       .  S
N1878      H1883   1.046       .  S
N1881      H1884   1.045       .  S
N1881      H1885   1.046       .  S
C1886      C1887   1.414       .  A
C1886      C1891   1.396       .  A
C1886      H1893   1.074       .  S
C1887      C1888   1.427       .  A
C1888      C1889   1.386       .  A
C1888      N1895   1.435       .  S
C1889      C1890   1.396       .  A
C1889      H1894   1.085       .  S
C1890      C1891   1.402       .  A
C1891      N2283   1.439       .  S
N1892      C2282   1.439       .  S
N1892      H1896   1.048       .  S
N1892      H1897   1.043       .  S
N1895      H1898   1.042       .  S
N1895      H1899   1.042       .  S
C1900      C1901   1.412       .  A
C1900      C1905   1.387       .  A
C1900      H1907   1.084       .  S
C1901      C1902   1.424       .  A
C1902      C1903   1.400       .  A
C1902      N1909   1.432       .  S
C1903      C1904   1.402       .  A
C1903      H1908   1.084       .  S
C1904      C1905   1.399       .  A
C1905      N1906   1.432       .  S
N1906      H1910   1.046       .  S
N1906      H1911   1.046       .  S
N1909      H1912   1.046       .  S
N1909      H1913   1.046       .  S
C1914      C1915   1.413       .  A
C1914      C1919   1.375       .  A
C1914      H1921   1.084       .  S
C1915      C1916   1.416       .  A
C1916      C1917   1.407       .  A
C1916      N1923   1.435       .  S
C1917      C1918   1.404   1_554  A
C1917      H1922   1.084   1_554  S
C1918      C1919   1.393   1_556  A
C1919      N1920   1.435   1_554  S
N1920      H2706   1.047       .  S
N1920      H2707   1.044   1_556  S
N1923      H1926   1.045       .  S
N1923      H1927   1.046       .  S
H1924      N2702   1.047       .  S
H1925      N2702   1.044   1_554  S
C1928      C1929   1.419       .  A
C1928      C1933   1.407       .  A
C1928      H1935   1.084       .  S
C1929      C1930   1.408       .  A
C1930      C1931   1.396       .  A
C1930      N1937   1.430       .  S
C1931      C1932   1.409       .  A
C1931      H1936   1.084       .  S
C1932      C1933   1.401       .  A
C1933      N1934   1.436       .  S
N1934      H1938   1.046       .  S
N1934      H1939   1.045       .  S
N1937      H1940   1.045       .  S
N1937      H1941   1.046       .  S
C1942      C1943   1.396       .  A
C1942      C1947   1.399       .  A
C1942      H1949   1.079       .  S
C1943      C1944   1.427       .  A
C1944      C1945   1.402       .  A
C1944      N1951   1.433       .  S
C1945      C1946   1.391       .  A
C1945      H1950   1.084       .  S
C1946      C1947   1.415       .  A
C1947      N2339   1.428       .  S
N1948      C2338   1.428       .  S
N1948      H1952   1.046   1_545  S
N1948      H1953   1.045   1_545  S
N1951      H1954   1.046       .  S
N1951      H1955   1.046       .  S
C1956      C1957   1.569       .  S
C1956      C1962   1.544       .  S
C1956      C1960   1.538       .  S
C1956      C2334   1.525       .  S
C1957      H1964   1.082       .  S
C1957      C1958   1.373       .  D
C1958      C1959   1.605       .  S
C1958      C2003   1.598       .  S
C1959      C1963   1.579       .  S
C1959      C1961   1.601       .  S
C1959      H1965   1.107       .  S
C1960      H1966   1.084       .  S
C1960      C1961   1.350       .  D
C1961      C1968   1.580       .  S
C1962      H1967   1.087       .  S
C1962      C1963   1.345       .  D
C1963      N2160   1.475       .  S
C1968      C1970   1.513       .  S
C1968      C1972   1.506       .  S
C1968      C1971   1.600       .  S
C1969      C1996   1.584       .  S
C1969      C1973   1.533       .  S
C1969      C1975   1.510       .  S
C1969      C1974   1.592       .  S
C1970      C1978   1.371       .  A
C1970      C1973   1.403       .  A
C1971      C1974   1.432       .  A
C1972      C1986   1.370       .  A
C1972      C1975   1.397       .  A
C1973      C1976   1.387       .  A
C1975      C1983   1.370       .  A
C1976      N1977   1.352       .  A
C1976      H1989   1.078       .  S
N1977      C2122   1.432       .  S
N1977      C1978   1.338       .  A
C1978      H1979   1.079       .  S
C1980      N1981   1.372       .  A
C1980      H1990   1.081       .  S
N1981      C1982   1.374       .  A
N1981      N2063   1.441       .  S
C1982      H1988   1.081       .  S
C1983      N1984   1.332       .  A
C1983      H1985   1.079       .  S
N1984      C2040   1.418       .  S
N1984      C1986   1.339       .  A
C1986      H1987   1.071       .  S
C1991      C1992   1.562       .  S
C1991      C1997   1.548       .  S
C1991      C1995   1.544       .  S
C1991      C2320   1.531       .  S
C1992      H1999   1.075       .  S
C1992      C1993   1.364       .  D
C1993      C1994   1.589       .  S
C1993      C2097   1.574       .  S
C1994      C1998   1.584       .  S
C1994      C1996   1.603       .  S
C1994      H2000   1.108       .  S
C1995      H2001   1.082       .  S
C1995      C1996   1.359       .  D
C1997      H2002   1.087       .  S
C1997      C1998   1.346       .  D
C1998      N2183   1.480       .  S
C2003      C2005   1.520       .  S
C2003      C2007   1.567       .  S
C2003      C2006   1.665       .  S
C2004      C2087   1.513       .  S
C2004      C2008   1.525       .  S
C2004      C2010   1.516       .  S
C2004      C2009   1.542       .  S
C2005      C2013   1.378       .  A
C2005      C2008   1.385       .  A
C2006      C2017   1.452       .  A
C2006      C2009   1.423       .  A
C2007      C2021   1.402       .  A
C2007      C2010   1.370       .  A
C2008      C2011   1.374       .  A
C2009      C2797   1.391   1_545  A
C2010      C2018   1.375       .  A
C2011      N2012   1.344       .  A
C2011      H2024   1.076       .  S
N2012      C2043   1.441       .  S
N2012      C2013   1.353       .  A
C2013      H2014   1.073       .  S
C2015      C2791   1.391       .  A
C2015      N2016   1.353       .  A
C2015      H2025   1.075       .  S
N2016      C2799   1.401       .  A
N2016      N2110   1.458       .  S
C2017      N2798   1.401   1_545  A
C2017      H2805   1.081   1_545  S
C2018      N2019   1.350       .  A
C2018      H2020   1.076       .  S
N2019      C2031   1.468       .  S
N2019      C2021   1.361       .  A
C2021      H2022   1.059       .  S
H2023      C2799   1.081       .  S
C2026      C2027   1.552       .  S
C2026      C2032   1.532       .  S
C2026      C2030   1.546       .  S
C2026      C2306   1.512       .  S
C2027      H2034   1.081       .  S
C2027      C2028   1.372       .  D
C2028      C2029   1.597       .  S
C2028      C2051   1.566       .  S
C2029      C2033   1.602       .  S
C2029      C2031   1.558       .  S
C2029      H2035   1.110       .  S
C2030      H2036   1.087       .  S
C2030      C2031   1.352       .  D
C2032      H2037   1.086       .  S
C2032      C2033   1.335       .  D
C2033      C2144   1.562       .  S
C2038      C2039   1.545       .  S
C2038      C2044   1.543       .  S
C2038      C2042   1.566       .  S
C2038      C2295   1.504       .  S
C2039      H2046   1.079       .  S
C2039      C2040   1.349       .  D
C2040      C2041   1.519       .  S
C2041      C2045   1.561       .  S
C2041      C2043   1.519       .  S
C2041      H2047   1.112       .  S
C2042      H2048   1.083       .  S
C2042      C2043   1.348       .  D
C2044      H2049   1.084       .  S
C2044      C2045   1.354       .  D
C2045      C2168   1.511       .  S
C2050      C2134   1.579       .  S
C2050      C2052   1.511       .  S
C2050      C2054   1.512       .  S
C2050      C2053   1.607       .  S
C2051      C2055   1.509       .  S
C2051      C2057   1.523       .  S
C2051      C2056   1.583       .  S
C2052      C2060   1.376       .  A
C2052      C2055   1.395       .  A
C2053      C2064   1.411       .  A
C2053      C2056   1.432       .  A
C2054      C2068   1.377       .  A
C2054      C2057   1.399       .  A
C2055      C2058   1.370       .  A
C2056      C2062   1.398       .  A
C2057      C2065   1.378       .  A
C2058      N2059   1.338       .  A
C2058      H2071   1.071       .  S
N2059      C2078   1.419       .  S
N2059      C2060   1.336       .  A
C2060      H2061   1.077       .  S
C2062      N2063   1.370       .  A
C2062      H2072   1.081       .  S
N2063      C2064   1.377       .  A
C2064      H2070   1.081       .  S
C2065      N2066   1.345       .  A
C2065      H2067   1.080       .  S
N2066      C2090   1.425       .  S
N2066      C2068   1.342       .  A
C2068      H2069   1.079       .  S
C2073      C2074   1.535       .  S
C2073      C2079   1.570       .  S
C2073      C2077   1.555       .  S
C2073      C2278   1.520       .  S
C2074      H2081   1.083       .  S
C2074      C2075   1.342       .  D
C2075      C2076   1.562       .  S
C2075      C2098   1.514       .  S
C2076      C2080   1.530       .  S
C2076      C2078   1.513       .  S
C2076      H2082   1.111       .  S
C2077      H2083   1.080       .  S
C2077      C2078   1.353       .  D
C2079      H2084   1.085       .  S
C2079      C2080   1.372       .  D
C2080      N2153   1.460       .  S
C2085      C2086   1.523       .  S
C2085      C2091   1.565       .  S
C2085      C2089   1.543       .  S
C2085      C2267   1.505       .  S
C2086      H2093   1.075       .  S
C2086      C2087   1.343       .  D
C2087      C2088   1.556       .  S
C2088      C2092   1.533       .  S
C2088      C2090   1.530       .  S
C2088      H2094   1.111       .  S
C2089      H2095   1.082       .  S
C2089      C2090   1.359       .  D
C2091      H2096   1.085       .  S
C2091      C2092   1.365       .  D
C2092      N2176   1.452       .  S
C2097      C2099   1.512       .  S
C2097      C2101   1.567       .  S
C2097      C2100   1.652       .  S
C2098      C2102   1.520       .  S
C2098      C2104   1.531       .  S
C2098      C2103   1.551       .  S
C2099      C2107   1.373       .  A
C2099      C2102   1.376       .  A
C2100      C2111   1.445       .  A
C2100      C2103   1.419       .  A
C2101      C2115   1.404       .  A
C2101      C2104   1.372       .  A
C2102      C2105   1.372       .  A
C2103      C2109   1.395       .  A
C2104      C2112   1.388       .  A
C2105      N2106   1.339       .  A
C2105      H2118   1.076       .  S
N2106      C2125   1.433       .  S
N2106      C2107   1.353       .  A
C2107      H2108   1.067       .  S
C2109      N2110   1.366       .  A
C2109      H2119   1.081       .  S
N2110      C2111   1.397       .  A
C2111      H2117   1.081       .  S
C2112      N2113   1.358       .  A
C2112      H2114   1.078       .  S
N2113      C2137   1.485       .  S
N2113      C2115   1.367       .  A
C2115      H2116   1.062       .  S
C2120      C2121   1.558       .  S
C2120      C2126   1.528       .  S
C2120      C2124   1.562       .  S
C2120      C2250   1.502       .  S
C2121      H2128   1.079       .  S
C2121      C2122   1.362       .  D
C2122      C2123   1.525       .  S
C2123      C2127   1.563       .  S
C2123      C2125   1.515       .  S
C2123      H2129   1.111       .  S
C2124      H2130   1.083       .  S
C2124      C2125   1.344       .  D
C2126      H2131   1.083       .  S
C2126      C2127   1.345       .  D
C2127      C2145   1.505       .  S
C2132      C2133   1.526       .  S
C2132      C2138   1.536       .  S
C2132      C2136   1.563       .  S
C2132      C2239   1.505       .  S
C2133      H2140   1.083       .  S
C2133      C2134   1.345       .  D
C2134      C2135   1.617       .  S
C2135      C2139   1.613       .  S
C2135      C2137   1.570       .  S
C2135      H2141   1.110       .  S
C2136      H2142   1.084       .  S
C2136      C2137   1.372       .  D
C2138      H2143   1.085       .  S
C2138      C2139   1.339       .  D
C2139      C2167   1.568       .  S
C2144      C2146   1.546       .  S
C2144      C2148   1.548       .  S
C2144      C2147   1.631       .  S
C2145      C2149   1.519       .  S
C2145      C2151   1.517       .  S
C2145      C2150   1.574       .  S
C2146      C2154   1.393       .  A
C2146      C2149   1.374       .  A
C2147      C2150   1.422       .  A
C2148      C2162   1.393       .  A
C2148      C2151   1.357       .  A
C2149      C2152   1.382       .  A
C2151      C2159   1.379       .  A
C2152      N2153   1.351       .  A
C2152      H2165   1.078       .  S
N2153      C2154   1.366       .  A
C2154      H2155   1.073       .  S
C2156      N2157   1.369       .  A
C2156      H2166   1.080       .  S
N2157      C2158   1.390       .  A
N2157      N2180   1.458       .  S
C2158      H2164   1.081       .  S
C2159      N2160   1.353       .  A
C2159      H2161   1.070       .  S
N2160      C2162   1.372       .  A
C2162      H2163   1.076       .  S
C2167      C2169   1.533       .  S
C2167      C2171   1.540       .  S
C2167      C2170   1.644       .  S
C2168      C2172   1.516       .  S
C2168      C2174   1.533       .  S
C2168      C2173   1.565       .  S
C2169      C2177   1.380       .  A
C2169      C2172   1.364       .  A
C2170      C2181   1.438       .  A
C2170      C2173   1.427       .  A
C2171      C2185   1.389       .  A
C2171      C2174   1.363       .  A
C2172      C2175   1.378       .  A
C2173      C2179   1.401       .  A
C2174      C2182   1.384       .  A
C2175      N2176   1.352       .  A
C2175      H2188   1.077       .  S
N2176      C2177   1.362       .  A
C2177      H2178   1.064       .  S
C2179      N2180   1.368       .  A
C2179      H2189   1.081       .  S
N2180      C2181   1.393       .  A
C2181      H2187   1.081       .  S
C2182      N2183   1.359       .  A
C2182      H2184   1.074       .  S
N2183      C2185   1.370       .  A
C2185      H2186   1.076       .  S
N2190      N2191   1.329       .  A
N2190     Mn2219   2.243       .  S
N2192      N2193   1.314       .  A
N2192     Mn2208   2.152       .  S
N2193      C2981   1.351       .  A
N2194      N2195   1.308   1_565  A
N2194     Mn2219   2.166   1_565  S
N2196      N2197   1.310       .  A
N2196     Mn2208   2.136       .  S
N2197      C2589   1.339       .  A
C2198      N2588   1.339       .  A
C2198      C2337   1.475       .  S
C2199      N2975   1.351   1_545  A
C2199      C2292   1.481       .  S
N2200      N2201   1.329       .  A
N2200     Mn2230   2.255   1_455  S
N2202      N2203   1.314       .  A
N2202     Mn2208   2.134       .  S
N2204      N2205   1.309   1_556  A
N2204     Mn2230   2.197   1_455  S
N2206      N2207   1.307       .  A
N2206     Mn2208   2.115       .  S
N2207      C2209   1.338       .  A
C2209      C2323   1.479       .  S
C2210      C2253   1.479       .  S
N2211      N2212   1.314       .  A
N2211      N2999   1.310       .  A
N2211     Mn2219   2.192   1_565  S
N2212      C2220   1.355       .  A
N2213      N2997   1.308       .  A
N2213      N2214   1.310       .  A
N2213     Mn2231   2.151       .  S
N2214      C2612   1.347       .  A
N2215      N2995   1.308   1_545  A
N2215      N2216   1.316       .  A
N2215     Mn2219   2.150       .  S
N2217      N2993   1.310       .  A
N2217      N3000   1.313       .  A
N2217     Mn2231   2.148       .  S
N2218      C2220   1.350       .  A
N2218      N2999   1.313       .  A
Mn2219    Cl3014   2.450   1_545  S
C2220      C2264   1.450       .  S
C2221      N2605   1.347       .  A
C2221      C2309   1.446       .  S
N2222      N2223   1.316   1_556  A
N2222      N2228   1.308       .  A
N2222     Mn2230   2.174       .  S
N2224      N2225   1.312       .  A
N2224      N2226   1.310       .  A
N2224     Mn2231   2.162       .  S
N2225      C2234   1.347       .  A
N2226      N2227   1.319       .  A
N2226     Mn2230   2.168       .  S
N2227      C2234   1.348       .  A
N2228      N2229   1.313   1_556  A
N2228     Mn2231   2.155       .  S
Mn2230    Cl2232   2.440       .  S
Mn2231    Cl2232   2.540       .  S
Cl2232    Mn3001   2.450       .  S
C2233      C2281   1.463       .  S
C2234      C2236   1.450       .  S
C2235      C2236   1.391       .  A
C2235      C2240   1.396       .  A
C2235      H2242   1.084       .  S
C2236      C2237   1.411       .  A
C2237      C2238   1.389       .  A
C2237      N2244   1.434       .  S
C2238      C2239   1.398       .  A
C2238      H2243   1.082       .  S
C2239      C2240   1.421       .  A
C2240      N2241   1.438       .  S
N2241      H2245   1.045       .  S
N2241      H2246   1.045       .  S
N2244      H2247   1.043       .  S
N2244      H2248   1.043       .  S
C2249      C2250   1.410       .  A
C2249      C2254   1.405       .  A
C2249      H2256   1.083       .  S
C2250      C2251   1.387       .  A
C2251      C2252   1.378       .  A
C2251      N2258   1.432       .  S
C2252      C2253   1.424       .  A
C2252      H2257   1.083       .  S
C2253      C2254   1.414       .  A
N2255      H2259   1.046       .  S
N2255      H2260   1.046   1_556  S
N2258      H2261   1.045       .  S
N2258      H2262   1.047       .  S
C2263      C2264   1.396       .  A
C2263      C2268   1.393       .  A
C2263      H2270   1.084       .  S
C2264      C2265   1.404       .  A
C2265      C2266   1.386   1_565  A
C2265      N2272   1.433       .  S
C2266      C2267   1.406       .  A
C2266      H2271   1.083       .  S
C2267      C2268   1.426   1_545  A
C2268      N2269   1.433   1_565  S
N2269      H2273   1.040       .  S
N2269      H2274   1.046       .  S
N2272      H2275   1.045       .  S
N2272      H2276   1.046       .  S
C2277      C2278   1.414       .  A
C2277      C2282   1.396       .  A
C2277      H2284   1.074       .  S
C2278      C2279   1.427       .  A
C2279      C2280   1.386       .  A
C2279      N2286   1.435       .  S
C2280      C2281   1.396       .  A
C2280      H2285   1.085       .  S
C2281      C2282   1.402       .  A
N2283      H2287   1.048       .  S
N2283      H2288   1.043       .  S
N2286      H2289   1.042       .  S
N2286      H2290   1.042       .  S
C2291      C2292   1.412       .  A
C2291      C2296   1.387       .  A
C2291      H2298   1.084       .  S
C2292      C2293   1.424       .  A
C2293      C2294   1.400       .  A
C2293      N2300   1.432       .  S
C2294      C2295   1.402       .  A
C2294      H2299   1.084       .  S
C2295      C2296   1.399       .  A
C2296      N2297   1.432       .  S
N2297      H2301   1.046       .  S
N2297      H2302   1.046       .  S
N2300      H2303   1.046       .  S
N2300      H2304   1.046       .  S
C2305      C2306   1.413       .  A
C2305      C2310   1.375       .  A
C2305      H2312   1.084       .  S
C2306      C2307   1.416       .  A
C2307      C2308   1.407       .  A
C2307      N2314   1.435       .  S
C2308      C2309   1.404       .  A
C2308      H2313   1.084       .  S
C2309      C2310   1.393       .  A
C2310      N2311   1.435       .  S
N2311      H3097   1.047       .  S
N2311      H3098   1.044       .  S
N2314      H2317   1.045       .  S
N2314      H2318   1.046       .  S
H2315      N3093   1.047       .  S
H2316      N3093   1.044       .  S
C2319      C2320   1.419       .  A
C2319      C2324   1.407       .  A
C2319      H2326   1.084       .  S
C2320      C2321   1.408       .  A
C2321      C2322   1.396       .  A
C2321      N2328   1.430       .  S
C2322      C2323   1.409       .  A
C2322      H2327   1.084       .  S
C2323      C2324   1.401       .  A
C2324      N2325   1.436       .  S
N2325      H2329   1.046       .  S
N2325      H2330   1.045       .  S
N2328      H2331   1.045       .  S
N2328      H2332   1.046       .  S
C2333      C2334   1.396       .  A
C2333      C2338   1.399       .  A
C2333      H2340   1.079       .  S
C2334      C2335   1.427       .  A
C2335      C2336   1.402       .  A
C2335      N2342   1.433       .  S
C2336      C2337   1.391       .  A
C2336      H2341   1.084       .  S
C2337      C2338   1.415       .  A
N2339      H2343   1.046   1_545  S
N2339      H2344   1.045   1_545  S
N2342      H2345   1.046       .  S
N2342      H2346   1.046       .  S
C2347      C2348   1.569       .  S
C2347      C2353   1.544       .  S
C2347      C2351   1.538       .  S
C2347      C2725   1.525       .  S
C2348      H2355   1.082       .  S
C2348      C2349   1.373       .  D
C2349      C2350   1.606       .  S
C2349      C2394   1.598       .  S
C2350      C2354   1.579       .  S
C2350      C2352   1.601       .  S
C2350      H2356   1.107       .  S
C2351      H2357   1.084       .  S
C2351      C2352   1.350       .  D
C2352      C2359   1.580       .  S
C2353      H2358   1.087       .  S
C2353      C2354   1.345       .  D
C2354      N2551   1.475       .  S
C2359      C2361   1.513       .  S
C2359      C2363   1.506       .  S
C2359      C2362   1.600       .  S
C2360      C2387   1.584       .  S
C2360      C2364   1.533       .  S
C2360      C2366   1.510       .  S
C2360      C2365   1.591       .  S
C2361      C2369   1.371       .  A
C2361      C2364   1.403       .  A
C2362      C2365   1.432       .  A
C2363      C2377   1.370       .  A
C2363      C2366   1.397       .  A
C2364      C2367   1.387       .  A
C2366      C2374   1.370       .  A
C2367      N2368   1.352       .  A
C2367      H2380   1.078       .  S
N2368      C2513   1.432       .  S
N2368      C2369   1.338       .  A
C2369      H2370   1.079       .  S
C2371      N2372   1.372       .  A
C2371      H2381   1.081       .  S
N2372      C2373   1.374       .  A
N2372      N2454   1.441       .  S
C2373      H2379   1.081       .  S
C2374      N2375   1.332       .  A
C2374      H2376   1.079       .  S
N2375      C2431   1.418       .  S
N2375      C2377   1.339       .  A
C2377      H2378   1.071       .  S
C2382      C2383   1.562       .  S
C2382      C2388   1.548       .  S
C2382      C2386   1.544       .  S
C2382      C2711   1.531       .  S
C2383      H2390   1.075       .  S
C2383      C2384   1.364       .  D
C2384      C2385   1.589       .  S
C2384      C2488   1.574       .  S
C2385      C2389   1.584       .  S
C2385      C2387   1.603       .  S
C2385      H2391   1.108       .  S
C2386      H2392   1.082       .  S
C2386      C2387   1.359       .  D
C2388      H2393   1.087       .  S
C2388      C2389   1.346       .  D
C2389      N2574   1.480       .  S
C2394      C2396   1.520       .  S
C2394      C2398   1.567       .  S
C2394      C2397   1.665       .  S
C2395      C2478   1.513       .  S
C2395      C2399   1.525       .  S
C2395      C2401   1.516       .  S
C2395      C2400   1.542       .  S
C2396      C2404   1.378       .  A
C2396      C2399   1.385       .  A
C2397      C2408   1.452       .  A
C2397      C2400   1.423       .  A
C2398      C2412   1.402       .  A
C2398      C2401   1.370       .  A
C2399      C2402   1.374       .  A
C2401      C2409   1.375       .  A
C2402      N2403   1.344       .  A
C2402      H2415   1.076       .  S
N2403      C2434   1.441       .  S
N2403      C2404   1.353       .  A
C2404      H2405   1.073       .  S
C2406      N2407   1.353       .  A
C2406      H2416   1.075       .  S
N2407      N2501   1.458       .  S
C2409      N2410   1.350       .  A
C2409      H2411   1.076       .  S
N2410      C2422   1.468       .  S
N2410      C2412   1.361       .  A
C2412      H2413   1.059       .  S
C2417      C2418   1.552       .  S
C2417      C2423   1.532       .  S
C2417      C2421   1.546       .  S
C2417      C2697   1.512       .  S
C2418      H2425   1.081       .  S
C2418      C2419   1.372       .  D
C2419      C2420   1.597       .  S
C2419      C2442   1.566       .  S
C2420      C2424   1.602       .  S
C2420      C2422   1.558       .  S
C2420      H2426   1.110       .  S
C2421      H2427   1.087       .  S
C2421      C2422   1.352       .  D
C2423      H2428   1.086       .  S
C2423      C2424   1.335       .  D
C2424      C2535   1.562       .  S
C2429      C2430   1.545       .  S
C2429      C2435   1.543       .  S
C2429      C2433   1.566       .  S
C2429      C2686   1.504       .  S
C2430      H2437   1.079       .  S
C2430      C2431   1.349       .  D
C2431      C2432   1.519       .  S
C2432      C2436   1.561       .  S
C2432      C2434   1.519       .  S
C2432      H2438   1.112       .  S
C2433      H2439   1.083       .  S
C2433      C2434   1.348       .  D
C2435      H2440   1.084       .  S
C2435      C2436   1.354       .  D
C2436      C2559   1.511       .  S
C2441      C2525   1.579       .  S
C2441      C2443   1.511       .  S
C2441      C2445   1.512       .  S
C2441      C2444   1.607       .  S
C2442      C2446   1.509       .  S
C2442      C2448   1.523       .  S
C2442      C2447   1.583       .  S
C2443      C2451   1.376       .  A
C2443      C2446   1.395       .  A
C2444      C2455   1.410       .  A
C2444      C2447   1.432       .  A
C2445      C2459   1.377       .  A
C2445      C2448   1.399       .  A
C2446      C2449   1.370       .  A
C2447      C2453   1.398       .  A
C2448      C2456   1.378       .  A
C2449      N2450   1.338       .  A
C2449      H2462   1.071       .  S
N2450      C2469   1.419       .  S
N2450      C2451   1.336       .  A
C2451      H2452   1.077       .  S
C2453      N2454   1.370       .  A
C2453      H2463   1.081       .  S
N2454      C2455   1.377       .  A
C2455      H2461   1.081       .  S
C2456      N2457   1.345       .  A
C2456      H2458   1.080       .  S
N2457      C2481   1.425       .  S
N2457      C2459   1.342       .  A
C2459      H2460   1.079       .  S
C2464      C2465   1.535       .  S
C2464      C2470   1.570       .  S
C2464      C2468   1.555       .  S
C2464      C2669   1.520       .  S
C2465      H2472   1.083       .  S
C2465      C2466   1.342       .  D
C2466      C2467   1.562       .  S
C2466      C2489   1.514       .  S
C2467      C2471   1.530       .  S
C2467      C2469   1.513       .  S
C2467      H2473   1.111       .  S
C2468      H2474   1.080       .  S
C2468      C2469   1.353       .  D
C2470      H2475   1.085       .  S
C2470      C2471   1.372       .  D
C2471      N2544   1.460       .  S
C2476      C2477   1.523       .  S
C2476      C2482   1.565       .  S
C2476      C2480   1.543       .  S
C2476      C2658   1.505       .  S
C2477      H2484   1.075       .  S
C2477      C2478   1.343       .  D
C2478      C2479   1.556       .  S
C2479      C2483   1.533       .  S
C2479      C2481   1.530       .  S
C2479      H2485   1.111       .  S
C2480      H2486   1.082       .  S
C2480      C2481   1.359       .  D
C2482      H2487   1.085       .  S
C2482      C2483   1.364       .  D
C2483      N2567   1.451       .  S
C2488      C2490   1.512       .  S
C2488      C2492   1.567       .  S
C2488      C2491   1.652       .  S
C2489      C2493   1.520       .  S
C2489      C2495   1.531       .  S
C2489      C2494   1.551       .  S
C2490      C2498   1.373       .  A
C2490      C2493   1.376       .  A
C2491      C2502   1.445       .  A
C2491      C2494   1.419       .  A
C2492      C2506   1.404       .  A
C2492      C2495   1.372       .  A
C2493      C2496   1.372       .  A
C2494      C2500   1.395       .  A
C2495      C2503   1.388       .  A
C2496      N2497   1.339       .  A
C2496      H2509   1.076       .  S
N2497      C2516   1.433       .  S
N2497      C2498   1.353       .  A
C2498      H2499   1.067       .  S
C2500      N2501   1.366       .  A
C2500      H2510   1.081       .  S
N2501      C2502   1.397       .  A
C2502      H2508   1.081       .  S
C2503      N2504   1.358       .  A
C2503      H2505   1.078       .  S
N2504      C2528   1.485       .  S
N2504      C2506   1.367       .  A
C2506      H2507   1.062       .  S
C2511      C2512   1.558       .  S
C2511      C2517   1.528       .  S
C2511      C2515   1.562       .  S
C2511      C2641   1.502       .  S
C2512      H2519   1.079       .  S
C2512      C2513   1.361       .  D
C2513      C2514   1.525       .  S
C2514      C2518   1.563       .  S
C2514      C2516   1.515       .  S
C2514      H2520   1.111       .  S
C2515      H2521   1.083       .  S
C2515      C2516   1.344       .  D
C2517      H2522   1.083   1_554  S
C2517      C2518   1.345       .  D
C2518      C2536   1.505       .  S
C2523      C2524   1.526       .  S
C2523      C2529   1.536       .  S
C2523      C2527   1.563       .  S
C2523      C2630   1.506       .  S
C2524      H2531   1.083       .  S
C2524      C2525   1.345       .  D
C2525      C2526   1.617       .  S
C2526      C2530   1.613       .  S
C2526      C2528   1.570       .  S
C2526      H2532   1.110       .  S
C2527      H2533   1.084       .  S
C2527      C2528   1.372       .  D
C2529      H2534   1.085       .  S
C2529      C2530   1.339       .  D
C2530      C2558   1.568       .  S
C2535      C2537   1.546       .  S
C2535      C2539   1.548       .  S
C2535      C2538   1.631       .  S
C2536      C2540   1.519       .  S
C2536      C2542   1.517       .  S
C2536      C2541   1.574       .  S
C2537      C2545   1.393       .  A
C2537      C2540   1.374       .  A
C2538      C2940   1.436   1_554  A
C2538      C2541   1.422       .  A
C2539      C2553   1.393       .  A
C2539      C2542   1.357       .  A
C2540      C2543   1.382       .  A
C2541      C2938   1.405   1_554  A
C2542      C2550   1.379       .  A
C2543      N2544   1.351       .  A
C2543      H2556   1.078       .  S
N2544      C2545   1.366       .  A
C2545      H2546   1.073       .  S
C2547      C2932   1.405       .  A
C2547      N2548   1.369       .  A
C2547      H2557   1.080       .  S
N2548      C2549   1.390       .  A
N2548      N2571   1.458       .  S
C2549      C2929   1.436       .  A
C2549      H2555   1.081       .  S
C2550      N2551   1.353       .  A
C2550      H2552   1.070       .  S
N2551      C2553   1.372       .  A
C2553      H2554   1.076       .  S
C2558      C2560   1.533       .  S
C2558      C2562   1.540       .  S
C2558      C2561   1.644       .  S
C2559      C2563   1.516       .  S
C2559      C2565   1.533       .  S
C2559      C2564   1.565       .  S
C2560      C2568   1.380       .  A
C2560      C2563   1.364       .  A
C2561      C2572   1.438       .  A
C2561      C2564   1.427       .  A
C2562      C2576   1.389       .  A
C2562      C2565   1.363       .  A
C2563      C2566   1.378       .  A
C2564      C2570   1.401       .  A
C2565      C2573   1.384       .  A
C2566      N2567   1.352       .  A
C2566      H2579   1.077       .  S
N2567      C2568   1.362       .  A
C2568      H2569   1.064       .  S
C2570      N2571   1.368       .  A
C2570      H2580   1.081       .  S
N2571      C2572   1.393       .  A
C2572      H2578   1.081       .  S
C2573      N2574   1.359       .  A
C2573      H2575   1.074       .  S
N2574      C2576   1.370       .  A
C2576      H2577   1.076       .  S
N2581      N2582   1.329       .  A
N2581     Mn2610   2.243       .  S
N2583      N2584   1.314       .  A
N2583     Mn2599   2.152       .  S
N2585      N2586   1.308       .  A
N2585     Mn2610   2.166       .  S
N2587      N2588   1.310       .  A
N2587     Mn2599   2.137   1_545  S
C2589      C2728   1.475   1_556  S
C2590      C2683   1.481       .  S
N2591      N2592   1.329       .  A
N2591     Mn2621   2.255   1_455  S
N2593      N2594   1.314       .  A
N2593     Mn2599   2.134       .  S
N2594      C2992   1.352       .  A
N2595      N2596   1.309       .  A
N2595     Mn2621   2.197   1_455  S
N2597      N2598   1.307       .  A
N2597     Mn2599   2.115       .  S
N2598      C2600   1.338       .  A
C2600      C2714   1.479       .  S
C2601      N2985   1.352   1_554  A
C2601      C2644   1.480       .  S
N2602      N2603   1.314       .  A
N2602     Mn2610   2.192       .  S
N2603      C2611   1.355       .  A
N2604      N2605   1.310   1_565  A
N2604     Mn2622   2.151       .  S
N2606      N2607   1.316       .  A
N2606     Mn2610   2.150       .  S
N2607      C3003   1.347       .  A
N2608     Mn2622   2.148       .  S
N2609      C2611   1.350       .  A
C2611      C2655   1.450       .  S
C2612      N2998   1.347       .  A
C2612      C2700   1.447       .  S
N2613      N2614   1.316       .  A
N2613      N2619   1.308       .  A
N2613     Mn2621   2.174       .  S
N2614      C3015   1.354       .  A
N2615      N2616   1.312       .  A
N2615      N2617   1.310       .  A
N2615     Mn2622   2.162       .  S
N2616      C2625   1.347       .  A
N2617      N2618   1.319       .  A
N2617     Mn2621   2.168       .  S
N2618      C2625   1.348       .  A
N2619      N2620   1.313       .  A
N2619     Mn2622   2.155       .  S
N2620      C3015   1.353       .  A
Mn2621    Cl2623   2.440       .  S
Mn2622    Cl2623   2.540       .  S
C2624      N3005   1.354       .  A
C2624      N3011   1.353       .  A
C2624      C2672   1.463       .  S
C2625      C2627   1.450       .  S
C2626      C2627   1.391       .  A
C2626      C2631   1.396       .  A
C2626      H2633   1.084       .  S
C2627      C2628   1.411       .  A
C2628      C2629   1.389       .  A
C2628      N2635   1.434       .  S
C2629      C2630   1.398       .  A
C2629      H2634   1.082       .  S
C2630      C2631   1.421       .  A
C2631      N2632   1.438       .  S
N2632      H2636   1.045       .  S
N2632      H2637   1.045       .  S
N2635      H2638   1.043       .  S
N2635      H2639   1.043       .  S
C2640      C2641   1.410   1_556  A
C2640      C2645   1.405       .  A
C2640      H2647   1.083       .  S
C2641      C2642   1.387       .  A
C2642      C2643   1.378       .  A
C2642      N2649   1.432   1_554  S
C2643      C2644   1.424       .  A
C2643      H2648   1.083       .  S
C2644      C2645   1.414   1_554  A
C2645      N3037   1.438       .  S
N2646      C3036   1.438       .  S
N2646      H2650   1.046       .  S
N2646      H2651   1.046       .  S
N2649      H2652   1.045       .  S
N2649      H2653   1.047   1_556  S
C2654      C2655   1.396       .  A
C2654      C2659   1.393       .  A
C2654      H2661   1.084       .  S
C2655      C2656   1.404       .  A
C2656      C2657   1.386       .  A
C2656      N2663   1.433       .  S
C2657      C2658   1.406       .  A
C2657      H2662   1.083       .  S
C2658      C2659   1.426       .  A
C2659      N2660   1.433       .  S
N2660      H2664   1.040       .  S
N2660      H2665   1.046       .  S
N2663      H2666   1.045       .  S
N2663      H2667   1.046       .  S
C2668      C2669   1.414       .  A
C2668      C2673   1.396       .  A
C2668      H2675   1.074       .  S
C2669      C2670   1.427       .  A
C2670      C2671   1.386       .  A
C2670      N2677   1.435       .  S
C2671      C2672   1.396       .  A
C2671      H2676   1.085       .  S
C2672      C2673   1.402       .  A
C2673      N3065   1.438       .  S
N2674      C3064   1.438       .  S
N2674      H2678   1.048       .  S
N2674      H2679   1.043       .  S
N2677      H2680   1.042       .  S
N2677      H2681   1.042       .  S
C2682      C2683   1.412       .  A
C2682      C2687   1.387       .  A
C2682      H2689   1.084       .  S
C2683      C2684   1.424       .  A
C2684      C2685   1.400       .  A
C2684      N2691   1.432       .  S
C2685      C2686   1.402       .  A
C2685      H2690   1.084       .  S
C2686      C2687   1.399       .  A
C2687      N2688   1.432       .  S
N2688      H2692   1.046       .  S
N2688      H2693   1.046       .  S
N2691      H2694   1.046       .  S
N2691      H2695   1.046       .  S
C2696      C2697   1.413       .  A
C2696      C2701   1.375       .  A
C2696      H2703   1.084       .  S
C2697      C2698   1.416       .  A
C2698      C2699   1.407       .  A
C2698      N2705   1.435       .  S
C2699      C2700   1.404   1_554  A
C2699      H2704   1.084   1_554  S
C2700      C2701   1.393   1_556  A
C2701      N2702   1.435   1_554  S
N2705      H2708   1.045       .  S
N2705      H2709   1.046       .  S
C2710      C2711   1.419       .  A
C2710      C2715   1.407       .  A
C2710      H2717   1.084       .  S
C2711      C2712   1.408       .  A
C2712      C2713   1.396       .  A
C2712      N2719   1.430       .  S
C2713      C2714   1.409       .  A
C2713      H2718   1.084       .  S
C2714      C2715   1.401       .  A
C2715      N2716   1.436       .  S
N2716      H2720   1.046       .  S
N2716      H2721   1.045       .  S
N2719      H2722   1.045       .  S
N2719      H2723   1.046       .  S
C2724      C2725   1.396       .  A
C2724      C2729   1.399       .  A
C2724      H2731   1.079       .  S
C2725      C2726   1.427       .  A
C2726      C2727   1.402       .  A
C2726      N2733   1.433       .  S
C2727      C2728   1.391       .  A
C2727      H2732   1.084       .  S
C2728      C2729   1.415       .  A
C2729      N3121   1.428       .  S
N2730      C3120   1.428       .  S
N2730      H2734   1.046       .  S
N2730      H2735   1.045       .  S
N2733      H2736   1.046       .  S
N2733      H2737   1.046       .  S
C2738      C2739   1.569       .  S
C2738      C2744   1.544       .  S
C2738      C2742   1.538       .  S
C2738      C3116   1.525       .  S
C2739      H2746   1.082       .  S
C2739      C2740   1.373       .  D
C2740      C2741   1.606       .  S
C2740      C2785   1.598       .  S
C2741      C2745   1.579       .  S
C2741      C2743   1.601       .  S
C2741      H2747   1.107       .  S
C2742      H2748   1.084       .  S
C2742      C2743   1.350       .  D
C2743      C2750   1.580       .  S
C2744      H2749   1.087       .  S
C2744      C2745   1.345       .  D
C2745      N2942   1.475       .  S
C2750      C2752   1.513       .  S
C2750      C2754   1.506       .  S
C2750      C2753   1.600       .  S
C2751      C2778   1.584       .  S
C2751      C2755   1.533       .  S
C2751      C2757   1.510       .  S
C2751      C2756   1.592       .  S
C2752      C2760   1.371       .  A
C2752      C2755   1.403       .  A
C2753      C2756   1.432       .  A
C2754      C2768   1.370       .  A
C2754      C2757   1.397       .  A
C2755      C2758   1.387       .  A
C2757      C2765   1.370       .  A
C2758      N2759   1.352       .  A
C2758      H2771   1.078       .  S
N2759      C2904   1.432       .  S
N2759      C2760   1.338       .  A
C2760      H2761   1.079       .  S
C2762      N2763   1.372       .  A
C2762      H2772   1.081       .  S
N2763      C2764   1.374       .  A
N2763      N2845   1.441       .  S
C2764      H2770   1.081       .  S
C2765      N2766   1.332       .  A
C2765      H2767   1.079       .  S
N2766      C2822   1.418       .  S
N2766      C2768   1.339       .  A
C2768      H2769   1.071       .  S
C2773      C2774   1.562       .  S
C2773      C2779   1.548       .  S
C2773      C2777   1.544       .  S
C2773      C3102   1.531       .  S
C2774      H2781   1.075       .  S
C2774      C2775   1.364       .  D
C2775      C2776   1.589       .  S
C2775      C2879   1.574       .  S
C2776      C2780   1.584       .  S
C2776      C2778   1.603       .  S
C2776      H2782   1.108       .  S
C2777      H2783   1.082       .  S
C2777      C2778   1.359       .  D
C2779      H2784   1.087       .  S
C2779      C2780   1.346       .  D
C2780      N2965   1.480       .  S
C2785      C2787   1.520       .  S
C2785      C2789   1.567       .  S
C2785      C2788   1.665       .  S
C2786      C2869   1.513       .  S
C2786      C2790   1.525       .  S
C2786      C2792   1.516       .  S
C2786      C2791   1.542       .  S
C2787      C2795   1.378       .  A
C2787      C2790   1.385       .  A
C2788      C2799   1.452       .  A
C2788      C2791   1.423       .  A
C2789      C2803   1.402       .  A
C2789      C2792   1.370       .  A
C2790      C2793   1.374       .  A
C2792      C2800   1.375       .  A
C2793      N2794   1.344       .  A
C2793      H2806   1.076       .  S
N2794      C2825   1.441       .  S
N2794      C2795   1.353       .  A
C2795      H2796   1.073       .  S
C2797      N2798   1.353       .  A
C2797      H2807   1.075       .  S
N2798      N2892   1.458       .  S
C2800      N2801   1.350       .  A
C2800      H2802   1.076       .  S
N2801      C2813   1.468       .  S
N2801      C2803   1.361       .  A
C2803      H2804   1.059       .  S
C2808      C2809   1.552       .  S
C2808      C2814   1.532       .  S
C2808      C2812   1.546       .  S
C2808      C3088   1.512       .  S
C2809      H2816   1.081       .  S
C2809      C2810   1.372       .  D
C2810      C2811   1.597       .  S
C2810      C2833   1.566       .  S
C2811      C2815   1.602       .  S
C2811      C2813   1.558       .  S
C2811      H2817   1.110       .  S
C2812      H2818   1.087       .  S
C2812      C2813   1.352       .  D
C2814      H2819   1.086       .  S
C2814      C2815   1.335       .  D
C2815      C2926   1.562       .  S
C2820      C2821   1.545       .  S
C2820      C2826   1.543       .  S
C2820      C2824   1.566       .  S
C2820      C3077   1.504       .  S
C2821      H2828   1.079       .  S
C2821      C2822   1.349       .  D
C2822      C2823   1.519       .  S
C2823      C2827   1.561       .  S
C2823      C2825   1.519       .  S
C2823      H2829   1.112       .  S
C2824      H2830   1.083       .  S
C2824      C2825   1.348       .  D
C2826      H2831   1.084       .  S
C2826      C2827   1.354       .  D
C2827      C2950   1.511       .  S
C2832      C2916   1.579       .  S
C2832      C2834   1.511       .  S
C2832      C2836   1.512       .  S
C2832      C2835   1.607       .  S
C2833      C2837   1.509       .  S
C2833      C2839   1.523       .  S
C2833      C2838   1.583       .  S
C2834      C2842   1.376       .  A
C2834      C2837   1.395       .  A
C2835      C2846   1.411       .  A
C2835      C2838   1.432       .  A
C2836      C2850   1.377       .  A
C2836      C2839   1.399       .  A
C2837      C2840   1.370       .  A
C2838      C2844   1.398       .  A
C2839      C2847   1.378       .  A
C2840      N2841   1.338       .  A
C2840      H2853   1.071       .  S
N2841      C2860   1.419       .  S
N2841      C2842   1.336       .  A
C2842      H2843   1.077       .  S
C2844      N2845   1.370       .  A
C2844      H2854   1.081       .  S
N2845      C2846   1.377       .  A
C2846      H2852   1.081       .  S
C2847      N2848   1.345       .  A
C2847      H2849   1.080       .  S
N2848      C2872   1.425       .  S
N2848      C2850   1.342       .  A
C2850      H2851   1.079       .  S
C2855      C2856   1.535       .  S
C2855      C2861   1.570       .  S
C2855      C2859   1.555       .  S
C2855      C3060   1.520       .  S
C2856      H2863   1.083       .  S
C2856      C2857   1.342       .  D
C2857      C2858   1.562       .  S
C2857      C2880   1.514       .  S
C2858      C2862   1.530       .  S
C2858      C2860   1.513       .  S
C2858      H2864   1.111       .  S
C2859      H2865   1.080       .  S
C2859      C2860   1.353       .  D
C2861      H2866   1.085       .  S
C2861      C2862   1.372       .  D
C2862      N2935   1.460       .  S
C2867      C2868   1.523       .  S
C2867      C2873   1.565       .  S
C2867      C2871   1.543       .  S
C2867      C3049   1.505       .  S
C2868      H2875   1.075       .  S
C2868      C2869   1.343       .  D
C2869      C2870   1.556       .  S
C2870      C2874   1.533       .  S
C2870      C2872   1.530       .  S
C2870      H2876   1.111       .  S
C2871      H2877   1.082       .  S
C2871      C2872   1.359       .  D
C2873      H2878   1.085       .  S
C2873      C2874   1.364       .  D
C2874      N2958   1.452       .  S
C2879      C2881   1.512       .  S
C2879      C2883   1.567       .  S
C2879      C2882   1.652       .  S
C2880      C2884   1.520       .  S
C2880      C2886   1.531       .  S
C2880      C2885   1.551       .  S
C2881      C2889   1.373       .  A
C2881      C2884   1.376       .  A
C2882      C2893   1.445       .  A
C2882      C2885   1.419       .  A
C2883      C2897   1.404       .  A
C2883      C2886   1.372       .  A
C2884      C2887   1.372       .  A
C2885      C2891   1.395       .  A
C2886      C2894   1.388       .  A
C2887      N2888   1.339       .  A
C2887      H2900   1.076       .  S
N2888      C2907   1.433       .  S
N2888      C2889   1.353       .  A
C2889      H2890   1.068       .  S
C2891      N2892   1.366       .  A
C2891      H2901   1.081       .  S
N2892      C2893   1.397       .  A
C2893      H2899   1.081       .  S
C2894      N2895   1.358       .  A
C2894      H2896   1.078       .  S
N2895      C2919   1.485       .  S
N2895      C2897   1.367       .  A
C2897      H2898   1.062       .  S
C2902      C2903   1.558       .  S
C2902      C2908   1.528       .  S
C2902      C2906   1.562       .  S
C2902      C3032   1.502       .  S
C2903      H2910   1.079       .  S
C2903      C2904   1.361       .  D
C2904      C2905   1.525       .  S
C2905      C2909   1.563       .  S
C2905      C2907   1.515       .  S
C2905      H2911   1.111       .  S
C2906      H2912   1.083       .  S
C2906      C2907   1.344       .  D
C2908      H2913   1.083       .  S
C2908      C2909   1.345       .  D
C2909      C2927   1.505       .  S
C2914      C2915   1.526       .  S
C2914      C2920   1.536       .  S
C2914      C2918   1.563       .  S
C2914      C3021   1.506       .  S
C2915      H2922   1.083       .  S
C2915      C2916   1.345       .  D
C2916      C2917   1.617       .  S
C2917      C2921   1.613       .  S
C2917      C2919   1.570       .  S
C2917      H2923   1.110       .  S
C2918      H2924   1.084       .  S
C2918      C2919   1.372       .  D
C2920      H2925   1.085       .  S
C2920      C2921   1.339       .  D
C2921      C2949   1.568       .  S
C2926      C2928   1.546       .  S
C2926      C2930   1.548       .  S
C2926      C2929   1.631       .  S
C2927      C2931   1.519       .  S
C2927      C2933   1.517       .  S
C2927      C2932   1.574       .  S
C2928      C2936   1.393       .  A
C2928      C2931   1.374       .  A
C2929      C2932   1.422       .  A
C2930      C2944   1.393       .  A
C2930      C2933   1.357       .  A
C2931      C2934   1.382       .  A
C2933      C2941   1.379       .  A
C2934      N2935   1.351       .  A
C2934      H2947   1.078       .  S
N2935      C2936   1.366       .  A
C2936      H2937   1.073       .  S
C2938      N2939   1.369       .  A
C2938      H2948   1.080       .  S
N2939      C2940   1.390       .  A
N2939      N2962   1.458       .  S
C2940      H2946   1.081       .  S
C2941      N2942   1.353       .  A
C2941      H2943   1.070       .  S
N2942      C2944   1.372       .  A
C2944      H2945   1.076       .  S
C2949      C2951   1.533       .  S
C2949      C2953   1.540       .  S
C2949      C2952   1.644       .  S
C2950      C2954   1.516       .  S
C2950      C2956   1.533       .  S
C2950      C2955   1.565       .  S
C2951      C2959   1.380       .  A
C2951      C2954   1.364       .  A
C2952      C2963   1.438       .  A
C2952      C2955   1.427       .  A
C2953      C2967   1.389       .  A
C2953      C2956   1.363       .  A
C2954      C2957   1.378       .  A
C2955      C2961   1.401       .  A
C2956      C2964   1.384       .  A
C2957      N2958   1.352       .  A
C2957      H2970   1.077       .  S
N2958      C2959   1.362       .  A
C2959      H2960   1.064       .  S
C2961      N2962   1.368       .  A
C2961      H2971   1.081       .  S
N2962      C2963   1.393       .  A
C2963      H2969   1.081       .  S
C2964      N2965   1.359       .  A
C2964      H2966   1.074       .  S
N2965      C2967   1.370       .  A
C2967      H2968   1.076       .  S
N2972      N2973   1.329       .  A
N2972     Mn3001   2.243       .  S
N2974      N2975   1.314       .  A
N2974     Mn2990   2.152       .  S
N2976      N2977   1.308       .  A
N2976     Mn3001   2.166       .  S
N2978      N2979   1.310       .  A
N2978     Mn2990   2.137   1_545  S
C2980      C3119   1.475       .  S
C2981      C3074   1.481       .  S
N2982      N2983   1.329       .  A
N2982     Mn3012   2.255   1_455  S
N2984      N2985   1.314       .  A
N2984     Mn2990   2.134       .  S
N2986      N2987   1.309   1_556  A
N2986     Mn3012   2.197   1_455  S
N2988      N2989   1.307       .  A
N2988     Mn2990   2.115       .  S
N2989      C2991   1.338       .  A
C2991      C3105   1.479       .  S
C2992      C3035   1.480       .  S
N2993      N2994   1.314       .  A
N2993     Mn3001   2.192       .  S
N2994      C3002   1.355       .  A
N2995      N2996   1.310   1_565  A
N2995     Mn3013   2.151       .  S
N2997      N2998   1.316       .  A
N2997     Mn3001   2.150       .  S
N2999     Mn3013   2.148       .  S
N3000      C3002   1.350       .  A
C3002      C3046   1.450       .  S
C3003      C3091   1.447       .  S
N3004      N3005   1.316   1_556  A
N3004      N3010   1.308       .  A
N3004     Mn3012   2.174       .  S
N3006      N3007   1.312       .  A
N3006      N3008   1.310       .  A
N3006     Mn3013   2.162       .  S
N3007      C3016   1.347       .  A
N3008      N3009   1.319       .  A
N3008     Mn3012   2.168       .  S
N3009      C3016   1.348       .  A
N3010      N3011   1.313   1_556  A
N3010     Mn3013   2.155       .  S
Mn3012    Cl3014   2.440       .  S
Mn3013    Cl3014   2.540       .  S
C3015      C3063   1.463       .  S
C3016      C3018   1.450       .  S
C3017      C3018   1.391       .  A
C3017      C3022   1.396       .  A
C3017      H3024   1.084       .  S
C3018      C3019   1.411       .  A
C3019      C3020   1.389       .  A
C3019      N3026   1.434       .  S
C3020      C3021   1.398       .  A
C3020      H3025   1.082       .  S
C3021      C3022   1.421       .  A
C3022      N3023   1.438       .  S
N3023      H3027   1.045       .  S
N3023      H3028   1.045       .  S
N3026      H3029   1.043       .  S
N3026      H3030   1.043       .  S
C3031      C3032   1.410       .  A
C3031      C3036   1.405       .  A
C3031      H3038   1.083       .  S
C3032      C3033   1.387       .  A
C3033      C3034   1.378       .  A
C3033      N3040   1.432       .  S
C3034      C3035   1.424       .  A
C3034      H3039   1.083       .  S
C3035      C3036   1.414       .  A
N3037      H3041   1.046       .  S
N3037      H3042   1.046   1_556  S
N3040      H3043   1.045       .  S
N3040      H3044   1.047       .  S
C3045      C3046   1.396       .  A
C3045      C3050   1.393       .  A
C3045      H3052   1.084       .  S
C3046      C3047   1.404       .  A
C3047      C3048   1.386       .  A
C3047      N3054   1.433       .  S
C3048      C3049   1.406       .  A
C3048      H3053   1.083       .  S
C3049      C3050   1.426       .  A
C3050      N3051   1.433       .  S
N3051      H3055   1.040       .  S
N3051      H3056   1.046       .  S
N3054      H3057   1.045       .  S
N3054      H3058   1.046       .  S
C3059      C3060   1.414       .  A
C3059      C3064   1.396       .  A
C3059      H3066   1.074       .  S
C3060      C3061   1.427       .  A
C3061      C3062   1.386       .  A
C3061      N3068   1.435       .  S
C3062      C3063   1.396       .  A
C3062      H3067   1.085       .  S
C3063      C3064   1.402       .  A
N3065      H3069   1.048       .  S
N3065      H3070   1.043       .  S
N3068      H3071   1.042       .  S
N3068      H3072   1.042       .  S
C3073      C3074   1.412       .  A
C3073      C3078   1.387       .  A
C3073      H3080   1.084       .  S
C3074      C3075   1.424       .  A
C3075      C3076   1.400       .  A
C3075      N3082   1.432       .  S
C3076      C3077   1.401       .  A
C3076      H3081   1.084       .  S
C3077      C3078   1.399       .  A
C3078      N3079   1.432       .  S
N3079      H3083   1.046       .  S
N3079      H3084   1.046       .  S
N3082      H3085   1.046       .  S
N3082      H3086   1.046       .  S
C3087      C3088   1.413       .  A
C3087      C3092   1.375       .  A
C3087      H3094   1.084       .  S
C3088      C3089   1.416       .  A
C3089      C3090   1.407       .  A
C3089      N3096   1.435       .  S
C3090      C3091   1.404       .  A
C3090      H3095   1.084       .  S
C3091      C3092   1.393       .  A
C3092      N3093   1.435       .  S
N3096      H3099   1.045       .  S
N3096      H3100   1.046       .  S
C3101      C3102   1.419       .  A
C3101      C3106   1.407       .  A
C3101      H3108   1.084       .  S
C3102      C3103   1.408       .  A
C3103      C3104   1.396       .  A
C3103      N3110   1.430       .  S
C3104      C3105   1.409       .  A
C3104      H3109   1.084       .  S
C3105      C3106   1.401       .  A
C3106      N3107   1.436       .  S
N3107      H3111   1.046       .  S
N3107      H3112   1.045       .  S
N3110      H3113   1.045       .  S
N3110      H3114   1.046       .  S
C3115      C3116   1.396       .  A
C3115      C3120   1.399       .  A
C3115      H3122   1.079       .  S
C3116      C3117   1.427       .  A
C3117      C3118   1.402       .  A
C3117      N3124   1.433       .  S
C3118      C3119   1.391       .  A
C3118      H3123   1.084       .  S
C3119      C3120   1.415       .  A
N3121      H3125   1.046       .  S
N3121      H3126   1.045       .  S
N3124      H3127   1.046       .  S
N3124      H3128   1.046       .  S
