geometry optimzed in LAMMPS
_audit_creation_date              2020-12-01 
_audit_creation_method            'lammps2cif' 
_symmetry_space_group_name_H-M    'P1' 
_symmetry_Int_Tables_number       1 
_symmetry_cell_setting            triclinic 
loop_ 
_symmetry_equiv_pos_as_xyz 
  x,y,z 
_cell_length_a                    36.45636697 
_cell_length_b                    36.484534574150686 
_cell_length_c                    36.44011198023301 
_cell_angle_alpha                 89.88910140598057 
_cell_angle_beta                  89.99132245189448 
_cell_angle_gamma                 90.02066985203183 
loop_ 
_atom_site_label 
_atom_site_type_symbol 
_atom_site_fract_x 
_atom_site_fract_y 
_atom_site_fract_z 
_atom_site_charge 
C1          C  0.33685990  0.33627939  0.33674629     0.44800
H2          H  0.32016380  0.31926656  0.31981219    -0.04200
C3          C  0.37684000  0.37681955  0.37723350     0.44900
H4          H  0.39444200  0.39454809  0.39499782    -0.04200
C5          C  0.36266919  0.36212267  0.31337443    -0.17900
C6          C  0.31323268  0.36204059  0.36237606    -0.17600
C7          C  0.36253589  0.31302477  0.36281854    -0.18000
C8          C  0.38350254  0.38356942  0.33685811    -0.18000
C9          C  0.33650558  0.38325016  0.38375176    -0.17600
C10         C  0.38339214  0.33655553  0.38419391    -0.17900
C11         C  0.37756359  0.20700281  0.37801840     0.44800
H12         H  0.39529285  0.18951030  0.39594528    -0.04200
C13         C  0.33720056  0.24698676  0.33722222     0.44900
H14         H  0.32031761  0.26375372  0.32017340    -0.04200
C15         C  0.33718552  0.19982064  0.38409947    -0.17900
C16         C  0.38390452  0.24736111  0.38450363    -0.17600
C17         C  0.38479501  0.20053473  0.33778738    -0.18000
C18         C  0.31377134  0.22103235  0.36283708    -0.18000
C19         C  0.36262154  0.27059260  0.36312981    -0.17600
C20         C  0.36342634  0.22139320  0.31408848    -0.17900
C21         C  0.24791207  0.24668357  0.33669106     0.44800
H22         H  0.26481694  0.26360143  0.31979641    -0.04200
C23         C  0.20746595  0.20637764  0.37711763     0.44900
H24         H  0.18971496  0.18875182  0.39490795    -0.04200
C25         C  0.22237645  0.22068843  0.31329527    -0.17900
C26         C  0.27128861  0.22110837  0.36279390    -0.17600
C27         C  0.22193976  0.27008236  0.36224834    -0.18000
C28         C  0.20123448  0.19930244  0.33674812    -0.18000
C29         C  0.24777099  0.20007192  0.38414357    -0.17600
C30         C  0.20078206  0.24667748  0.38359620    -0.17900
C31         C  0.20689975  0.37620539  0.37632595     0.43400
H32         H  0.18897592  0.39379560  0.39389862    -0.04200
C33         C  0.24768174  0.33598951  0.33632757     0.44900
H34         H  0.26472438  0.31911819  0.31961039    -0.04200
C35         C  0.24717494  0.38340266  0.38285652    -0.17900
C36         C  0.20046333  0.33588116  0.38307115    -0.17600
C37         C  0.20020348  0.38245974  0.33594730    -0.18000
C38         C  0.27079699  0.36207195  0.36201037    -0.18000
C39         C  0.22194293  0.31252053  0.36215489    -0.17600
C40         C  0.22179676  0.36151432  0.31267123    -0.17900
C41         C  0.24809855  0.33582850  0.24705704     0.44800
H42         H  0.26493955  0.31902123  0.26411314    -0.04200
C43         C  0.20781753  0.37593158  0.20629552     0.44900
H44         H  0.19014108  0.39349623  0.18838665    -0.04200
C45         C  0.22222351  0.36170944  0.27020384    -0.17900
C46         C  0.27159632  0.36148298  0.22114943    -0.17600
C47         C  0.22247546  0.31228800  0.22128528    -0.18000
C48         C  0.20124994  0.38301229  0.24658456    -0.18000
C49         C  0.24816046  0.38241982  0.19960305    -0.17600
C50         C  0.20128850  0.33559004  0.19981209    -0.17900
C51         C  0.33743718  0.33602166  0.24743712     0.44800
H52         H  0.32047402  0.31912465  0.26429908    -0.04200
C53         C  0.37793991  0.37634067  0.20707039     0.44900
H54         H  0.39568870  0.39400172  0.18931277    -0.04200
C55         C  0.31409057  0.36173905  0.22151540    -0.17900
C56         C  0.36315411  0.36185927  0.27087588    -0.17600
C57         C  0.36339084  0.31263365  0.22183708    -0.18000
C58         C  0.33757888  0.38304024  0.20043686    -0.18000
C59         C  0.38458783  0.38294793  0.24739967    -0.17600
C60         C  0.38476166  0.33604943  0.20069231    -0.17900
C61         C  0.20847633  0.20605387  0.20694735     0.44800
H62         H  0.19083395  0.18837113  0.18918301    -0.04200
C63         C  0.24854258  0.24652950  0.24740689     0.44900
H64         H  0.26530395  0.26351262  0.26430703    -0.04200
C65         C  0.24887125  0.19911303  0.20085250    -0.17900
C66         C  0.20189953  0.24634187  0.20009601    -0.17600
C67         C  0.20131482  0.19976263  0.24727324    -0.18000
C68         C  0.27213641  0.22058596  0.22196025    -0.18000
C69         C  0.22290749  0.26984147  0.22131448    -0.17600
C70         C  0.22249942  0.22085455  0.27079578    -0.17900
C71         C  0.33777315  0.24676507  0.24795003     0.44800
H72         H  0.32075845  0.26364418  0.26468230    -0.04200
C73         C  0.37849340  0.20650024  0.20795086     0.44900
H74         H  0.39638956  0.18889383  0.19036727    -0.04200
C75         C  0.36345302  0.22109620  0.27161494    -0.17900
C76         C  0.31460223  0.22085998  0.22204350    -0.17600
C77         C  0.36361587  0.27020368  0.22219959    -0.18000
C78         C  0.38470503  0.19978745  0.24839194    -0.18000
C79         C  0.33826130  0.19978715  0.20092805    -0.17600
C80         C  0.38493680  0.24682520  0.20115205    -0.17900
O81         O  0.99626237  0.01730456  0.32333878    -0.72400
O82         O  0.08809045  0.06539058  0.32330930    -0.72600
O83         O  0.06622852  0.99550445  0.32287830    -0.72500
O84         O  0.01806312  0.08720886  0.32382147    -0.72500
O85         O  0.00351800  0.07620690  0.38044052    -0.72400
O86         O  0.08128520  0.00541739  0.37952041    -0.72500
O87         O  0.07793248  0.07968282  0.38008299    -0.72400
O88         O  0.00696444  0.00197265  0.37981846    -0.72600
V89         V  0.04216286  0.04135198  0.32390524     1.35200
V90         V  0.04242222  0.04081985  0.38000018     1.35200
C91         C  0.48839231  0.49805204  0.35067993     0.76800
C92         C  0.09634852  0.08434891  0.35084268     0.76900
C93         C  0.08583537  0.48721798  0.34996861     0.76800
C94         C  0.49901500  0.09490295  0.35147247     0.76700
O95         O  0.00345248  0.00666441  0.20416766    -0.72400
O96         O  0.08176525  0.07697156  0.20394899    -0.72600
O97         O  0.07784811  0.00270410  0.20386043    -0.72500
O98         O  0.00741064  0.08089458  0.20428793    -0.72500
O99         O  0.99714892  0.06585021  0.26091883    -0.72400
O100        O  0.08865050  0.01727929  0.26045367    -0.72500
O101        O  0.06718968  0.08731510  0.26063906    -0.72400
O102        O  0.01848840  0.99589423  0.26069564    -0.72600
V103        V  0.04262579  0.04180472  0.20401968     1.35200
V104        V  0.04287407  0.04158782  0.26010768     1.35200
C105        C  0.49908221  0.48830862  0.23345741     0.76800
C106        C  0.08639159  0.09535091  0.23314732     0.76900
C107        C  0.09643829  0.49803715  0.23286699     0.76800
C108        C  0.48889628  0.08518040  0.23349929     0.76700
O109        O  0.32412510  0.01675658  0.08790967    -0.72400
O110        O  0.32390268  0.06658612  0.99706555    -0.72600
O111        O  0.32336825  0.99636989  0.01751136    -0.72500
O112        O  0.32464988  0.08701235  0.06740722    -0.72500
O113        O  0.38134868  0.07598803  0.08145259    -0.72400
O114        O  0.38002221  0.00637426  0.00253375    -0.72500
O115        O  0.38080861  0.08056908  0.00705500    -0.72400
O116        O  0.38060195  0.00179904  0.07691737    -0.72600
V117        V  0.32460556  0.04167738  0.04247140     1.35200
V118        V  0.38071229  0.04117491  0.04199429     1.35200
C119        C  0.35130634  0.49728652  0.09503954     0.76800
C120        C  0.35134498  0.08506151  0.48881735     0.76900
C121        C  0.35092353  0.48806813  0.49810950     0.76800
C122        C  0.35233817  0.09459623  0.08647517     0.76700
O123        O  0.08683443  0.32393436  0.06764860    -0.72400
O124        O  0.99778200  0.32475782  0.01507000    -0.72600
O125        O  0.06851833  0.32444124  0.99679926    -0.72500
O126        O  0.01608408  0.32424047  0.08587476    -0.72500
O127        O  0.00331988  0.38153498  0.07674714    -0.72400
O128        O  0.08185634  0.38153221  0.00641993    -0.72500
O129        O  0.00747450  0.38196194  0.00223663    -0.72400
O130        O  0.07775167  0.38110460  0.08088849    -0.72600
V131        V  0.04230815  0.32510097  0.04134692     1.35200
V132        V  0.04260542  0.38139006  0.04157168     1.35200
C133        C  0.09529497  0.35152493  0.08638294     0.76800
C134        C  0.48936000  0.35208495  0.49727182     0.76900
C135        C  0.08726823  0.35150906  0.48873068     0.76800
C136        C  0.49777187  0.35199450  0.09444251     0.76700
O137        O  0.20456699  0.00583725  0.08117219    -0.72400
O138        O  0.20365808  0.07696426  0.00357516    -0.72600
O139        O  0.20374646  0.00263450  0.00675740    -0.72500
O140        O  0.20454361  0.08011545  0.07797712    -0.72500
O141        O  0.26137167  0.06557513  0.08751571    -0.72400
O142        O  0.26034065  0.01721993  0.99585946    -0.72500
O143        O  0.26054574  0.08717647  0.01748356    -0.72400
O144        O  0.26112506  0.99564369  0.06596220    -0.72600
V145        V  0.20412344  0.04138051  0.04236630     1.35200
V146        V  0.26024214  0.04140086  0.04170822     1.35200
C147        C  0.23357785  0.48761332  0.08537608     0.76800
C148        C  0.23325751  0.09536182  0.49881748     0.76900
C149        C  0.23325730  0.49831668  0.48751133     0.76800
C150        C  0.23399259  0.08465307  0.09604893     0.76700
O151        O  0.08675079  0.25973548  0.01581856    -0.72400
O152        O  0.99864416  0.25922138  0.06978698    -0.72600
O153        O  0.06964505  0.25906097  0.08687801    -0.72500
O154        O  0.01567019  0.25996226  0.99871663    -0.72500
O155        O  0.00254611  0.20276392  0.00797224    -0.72400
O156        O  0.08253682  0.20197674  0.07668511    -0.72500
O157        O  0.00826643  0.20193026  0.08231041    -0.72400
O158        O  0.07687357  0.20272311  0.00237113    -0.72600
V159        V  0.04267106  0.25876070  0.04279404     1.35200
V160        V  0.04256387  0.20248499  0.04233264     1.35200
C161        C  0.09552149  0.23130236  0.49764156     0.76800
C162        C  0.49036974  0.23112254  0.08781849     0.76900
C163        C  0.08835452  0.23122258  0.09461387     0.76800
C164        C  0.49790005  0.23215238  0.48955419     0.76700
C165        C  0.34116741  0.13549376  0.18019613    -0.14000
C166        C  0.33223887  0.17210016  0.17211156     0.08200
C167        C  0.33117288  0.18321832  0.13521473    -0.14000
C168        C  0.33836883  0.15813948  0.10707190    -0.14000
C169        C  0.34872232  0.12207408  0.11553694     0.08200
C170        C  0.34947832  0.11074095  0.15223746    -0.14000
H171        H  0.34256671  0.12635360  0.20831814     0.12200
H172        H  0.32482626  0.21133490  0.12830295     0.12200
H173        H  0.33635327  0.16695661  0.07874353     0.12200
H174        H  0.35593411  0.08258674  0.15921149     0.12200
C175        C  0.40062750  0.24903982  0.13525122    -0.14000
C176        C  0.41194155  0.25330768  0.17183403     0.08200
C177        C  0.44929915  0.24947994  0.18026694    -0.14000
C178        C  0.47461118  0.24025148  0.15303153    -0.14000
C179        C  0.46293743  0.23491835  0.11681588     0.08200
C180        C  0.42604076  0.24065197  0.10779180    -0.14000
H181        H  0.37199923  0.25172706  0.12815216     0.12200
H182        H  0.45870322  0.25329363  0.20808847     0.12200
H183        H  0.00351420  0.23822675  0.16068322     0.12200
H184        H  0.41691014  0.23831868  0.07960622     0.12200
C185        C  0.40073645  0.13412683  0.25646832    -0.14000
C186        C  0.41208236  0.17088702  0.25514664     0.08200
C187        C  0.44877811  0.17869341  0.24645338    -0.14000
C188        C  0.47320932  0.15069895  0.23757298    -0.14000
C189        C  0.46155701  0.11418210  0.23797127     0.08200
C190        C  0.42559055  0.10586416  0.24889657    -0.14000
H191        H  0.37254613  0.12746349  0.26295045     0.12200
H192        H  0.45823426  0.20665808  0.24579637     0.12200
H193        H  0.50140476  0.15748896  0.23102586     0.12200
H194        H  0.41663087  0.07761770  0.25084854     0.12200
C195        C  0.13604652  0.24870897  0.18436829    -0.14000
C196        C  0.17264305  0.25273157  0.17302327     0.08200
C197        C  0.18104685  0.24877773  0.13565751    -0.14000
C198        C  0.15371205  0.23984613  0.11033310    -0.14000
C199        C  0.11744254  0.23485888  0.12201504     0.08200
C200        C  0.10850914  0.24059710  0.15894884    -0.14000
H201        H  0.12898711  0.25135508  0.21302470     0.12200
H202        H  0.20889727  0.25233811  0.12623732     0.12200
H203        H  0.16072917  0.23742741  0.08154608     0.12200
H204        H  0.08032160  0.23845386  0.16810954     0.12200
C205        C  0.25642041  0.13328322  0.18472383    -0.14000
C206        C  0.25551498  0.17012140  0.17346187     0.08200
C207        C  0.24726465  0.17804767  0.13666218    -0.14000
C208        C  0.23855644  0.15015087  0.11202675    -0.14000
C209        C  0.23850290  0.11356750  0.12357774     0.08200
C210        C  0.24885963  0.10511188  0.15971324    -0.14000
H211        H  0.26260895  0.12647471  0.21295930     0.12200
H212        H  0.24691390  0.20604628  0.12723947     0.12200
H213        H  0.23242023  0.15708168  0.08375749     0.12200
H214        H  0.25045317  0.07682998  0.16866273     0.12200
C215        C  0.18014043  0.13576531  0.24450966    -0.14000
C216        C  0.17234369  0.17234073  0.25358382     0.08200
C217        C  0.13555618  0.18364524  0.25504935    -0.14000
C218        C  0.10721928  0.15870910  0.24796756    -0.14000
C219        C  0.11545287  0.12272899  0.23723477     0.08200
C220        C  0.15202815  0.11123741  0.23619989    -0.14000
H221        H  0.20817378  0.12651143  0.24289842     0.12200
H222        H  0.12889924  0.21179042  0.26147208     0.12200
H223        H  0.07896431  0.16760531  0.25018131     0.12200
H224        H  0.15879285  0.08312332  0.22946432     0.12200
C225        C  0.45075246  0.33460037  0.18479365    -0.14000
C226        C  0.41417120  0.32970582  0.17366863     0.08200
C227        C  0.40564876  0.33295389  0.13624788    -0.14000
C228        C  0.43276524  0.34194044  0.11066103    -0.14000
C229        C  0.46893856  0.34796347  0.12211753     0.08200
C230        C  0.47807128  0.34300273  0.15913608    -0.14000
H231        H  0.45793616  0.33257664  0.21347395     0.12200
H232        H  0.37784400  0.32874163  0.12697137     0.12200
H233        H  0.42562414  0.34375102  0.08185152     0.12200
H234        H  0.00628719  0.34577453  0.16804629     0.12200
C235        C  0.33974636  0.40377682  0.13609081    -0.14000
C236        C  0.33107723  0.41176980  0.17275074     0.08200
C237        C  0.32943498  0.44858816  0.18375023    -0.14000
C238        C  0.33643522  0.47674955  0.15854113    -0.14000
C239        C  0.34710715  0.46831778  0.12254379     0.08200
C240        C  0.34798281  0.43171608  0.11126024    -0.14000
H241        H  0.34070791  0.37575202  0.12692023     0.12200
H242        H  0.32295329  0.45539426  0.21189677     0.12200
H243        H  0.33422239  0.50503336  0.16724482     0.12200
H244        H  0.35445460  0.42480728  0.08308410     0.12200
C245        C  0.43338580  0.47195674  0.23595918    -0.14000
C246        C  0.47005831  0.46081176  0.23763689     0.08200
C247        C  0.47840959  0.42494063  0.24878165    -0.14000
C248        C  0.45018535  0.39976642  0.25562516    -0.14000
C249        C  0.41330861  0.41072300  0.25365795     0.08200
C250        C  0.40535101  0.44720577  0.24412529    -0.14000
H251        H  0.42647374  0.49996385  0.22882880     0.12200
H252        H  0.50670219  0.41627359  0.25141846     0.12200
H253        H  0.45701123  0.37169456  0.26230212     0.12200
H254        H  0.37726839  0.45621496  0.24204991     0.12200
C255        C  0.13682044  0.33279724  0.17888074    -0.14000
C256        C  0.17420871  0.32913118  0.17043903     0.08200
C257        C  0.18539096  0.33353407  0.13378441    -0.14000
C258        C  0.15984767  0.34182115  0.10631629    -0.14000
C259        C  0.12288633  0.34725332  0.11534020     0.08200
C260        C  0.11136399  0.34178490  0.15162254    -0.14000
H261        H  0.12747477  0.32895663  0.20673943     0.12200
H262        H  0.21403886  0.33116199  0.12663744     0.12200
H263        H  0.16894900  0.34438811  0.07813123     0.12200
H264        H  0.08259502  0.34400785  0.15874333     0.12200
C265        C  0.24534307  0.44659665  0.17889546    -0.14000
C266        C  0.25447673  0.41008732  0.17083912     0.08200
C267        C  0.25579295  0.39905360  0.13396850    -0.14000
C268        C  0.24855223  0.42417842  0.10580146    -0.14000
C269        C  0.23778573  0.46007841  0.11429244     0.08200
C270        C  0.23684077  0.47131550  0.15094827    -0.14000
H271        H  0.24386144  0.45564323  0.20700000     0.12200
H272        H  0.26221324  0.37095613  0.12712008     0.12200
H273        H  0.25066936  0.41548828  0.07747438     0.12200
H274        H  0.23086905  0.99931645  0.15787385     0.12200
C275        C  0.13710636  0.40435950  0.24415380    -0.14000
C276        C  0.17382176  0.41209656  0.25280835     0.08200
C277        C  0.18507199  0.44889262  0.25438808    -0.14000
C278        C  0.16002754  0.47722800  0.24746712    -0.14000
C279        C  0.12393445  0.46901107  0.23688536     0.08200
C280        C  0.11246266  0.43244462  0.23599422    -0.14000
H281        H  0.12770281  0.37639787  0.24321842     0.12200
H282        H  0.21324247  0.45555754  0.26089822     0.12200
H283        H  0.16891956  0.50546566  0.24972039     0.12200
H284        H  0.08423965  0.42566074  0.22960215     0.12200
C285        C  0.15237441  0.34214495  0.47280176    -0.14000
C286        C  0.11614508  0.34745392  0.46118866     0.08200
C287        C  0.10709002  0.34186931  0.42426527    -0.14000
C288        C  0.13454410  0.33360624  0.39878397    -0.14000
C289        C  0.17114709  0.32937340  0.41006631     0.08200
C290        C  0.17960518  0.33313703  0.44742403    -0.14000
H291        H  0.15945648  0.34445591  0.50158130     0.12200
H292        H  0.07890780  0.34427560  0.41516438     0.12200
H293        H  0.12743462  0.33106899  0.37013552     0.12200
H294        H  0.20744548  0.32936806  0.45679010     0.12200
C295        C  0.13453812  0.39872042  0.32805263    -0.14000
C296        C  0.17137522  0.40991825  0.32937127     0.08200
C297        C  0.17934929  0.44652958  0.33813411    -0.14000
C298        C  0.15135544  0.47121179  0.34627480    -0.14000
C299        C  0.11474540  0.45979808  0.34549834     0.08200
C300        C  0.10631611  0.42377973  0.33506513    -0.14000
H301        H  0.12776134  0.37055672  0.32183313     0.12200
H302        H  0.20742866  0.45569217  0.33962895     0.12200
H303        H  0.15799813  0.99955108  0.35307456     0.12200
H304        H  0.07801858  0.41494265  0.33308855     0.12200
C305        C  0.25479595  0.44930698  0.39885293    -0.14000
C306        C  0.25339652  0.41251285  0.41020532     0.08200
C307        C  0.24479538  0.40473978  0.44695561    -0.14000
C308        C  0.23652326  0.43278479  0.47154295    -0.14000
C309        C  0.23726752  0.46935228  0.45999021     0.08200
C310        C  0.24774337  0.47761748  0.42384141    -0.14000
H311        H  0.26121135  0.45598649  0.37063601     0.12200
H312        H  0.24400253  0.37677916  0.45643257     0.12200
H313        H  0.23060051  0.42555718  0.99989829     0.12200
H314        H  0.25008173  0.00596790  0.41517820     0.12200
C315        C  0.18499217  0.13342087  0.32878344    -0.14000
C316        C  0.17378618  0.17022827  0.33036179     0.08200
C317        C  0.13710681  0.17795536  0.33919772    -0.14000
C318        C  0.11251261  0.14988979  0.34764528    -0.14000
C319        C  0.12393097  0.11331870  0.34672628     0.08200
C320        C  0.15995102  0.10508800  0.33589221    -0.14000
H321        H  0.21316477  0.12674764  0.32228239     0.12200
H322        H  0.12773012  0.20591957  0.34015992     0.12200
H323        H  0.08433948  0.15669219  0.35422754     0.12200
H324        H  0.16880375  0.07684608  0.33362420     0.12200
C325        C  0.25554935  0.18373041  0.44987146    -0.14000
C326        C  0.25402084  0.17254874  0.41304992     0.08200
C327        C  0.24470331  0.13604544  0.40517451    -0.14000
C328        C  0.23618032  0.11148582  0.43324866    -0.14000
C329        C  0.23734474  0.12285081  0.46985428     0.08200
C330        C  0.24834250  0.15873134  0.47817224    -0.14000
H331        H  0.26216840  0.21182003  0.45657891     0.12200
H332        H  0.24298376  0.12690988  0.37710486     0.12200
H333        H  0.22923226  0.08342929  0.42643402     0.12200
H334        H  0.24883786  0.16784224  0.00660958     0.12200
C335        C  0.18534363  0.24894348  0.44969904    -0.14000
C336        C  0.17389902  0.25308743  0.41310139     0.08200
C337        C  0.13648204  0.24933812  0.40490057    -0.14000
C338        C  0.11122017  0.24051804  0.43236536    -0.14000
C339        C  0.12297928  0.23532953  0.46859333     0.08200
C340        C  0.15997872  0.24085415  0.47738548    -0.14000
H341        H  0.21402888  0.25145469  0.45663687     0.12200
H342        H  0.12695604  0.25300200  0.37708647     0.12200
H343        H  0.08240650  0.23822688  0.42545032     0.12200
H344        H  0.16802047  0.24062662  0.00492429     0.12200
C345        C  0.33659112  0.10573215  0.42527660    -0.14000
C346        C  0.34730555  0.11402733  0.46130618     0.08200
C347        C  0.34793799  0.15055058  0.47280507    -0.14000
C348        C  0.33938465  0.17856766  0.44820865    -0.14000
C349        C  0.33069550  0.17078767  0.41151296     0.08200
C350        C  0.32927639  0.13401738  0.40026720    -0.14000
H351        H  0.33450618  0.07748293  0.41642193     0.12200
H352        H  0.35511282  0.15786244  0.00113961     0.12200
H353        H  0.34014825  0.20653049  0.45757934     0.12200
H354        H  0.32280080  0.12735270  0.37208407     0.12200
C355        C  0.40557349  0.13632263  0.34077406    -0.14000
C356        C  0.41368497  0.17290609  0.33181174     0.08200
C357        C  0.45058976  0.18392436  0.33057372    -0.14000
C358        C  0.47870806  0.15867251  0.33749635    -0.14000
C359        C  0.47017079  0.12260482  0.34784475     0.08200
C360        C  0.43347518  0.11145008  0.34889244    -0.14000
H361        H  0.37745867  0.12727597  0.34228726     0.12200
H362        H  0.45752392  0.21205278  0.32427909     0.12200
H363        H  0.50704265  0.16735763  0.33533391     0.12200
H364        H  0.42645047  0.08331483  0.35540009     0.12200
C365        C  0.44991178  0.25026144  0.39987526    -0.14000
C366        C  0.41331995  0.25401204  0.41137638     0.08200
C367        C  0.40515163  0.25003511  0.44880309    -0.14000
C368        C  0.43264603  0.24121174  0.47399922    -0.14000
C369        C  0.46887302  0.23640481  0.46216599     0.08200
C370        C  0.47764374  0.24231816  0.42519828    -0.14000
H371        H  0.45680610  0.25298407  0.37117563     0.12200
H372        H  0.37733792  0.25343165  0.45836767     0.12200
H373        H  0.42513188  0.24000520  0.00314851     0.12200
H374        H  0.00572340  0.23936362  0.41592022     0.12200
C375        C  0.33913353  0.44745025  0.40441512    -0.14000
C376        C  0.33002520  0.41087835  0.41245287     0.08200
C377        C  0.32864573  0.39973231  0.44933222    -0.14000
C378        C  0.33589300  0.42474260  0.47751700    -0.14000
C379        C  0.34662815  0.46070643  0.46907586     0.08200
C380        C  0.34752190  0.47210208  0.43240659    -0.14000
H381        H  0.34081872  0.45656945  0.37629214     0.12200
H382        H  0.32221586  0.37160596  0.45617682     0.12200
H383        H  0.33379775  0.41590760  0.50583501     0.12200
H384        H  0.35429449  0.50019787  0.42547557     0.12200
C385        C  0.39916496  0.33463730  0.45024300    -0.14000
C386        C  0.41036327  0.33028204  0.41361277     0.08200
C387        C  0.44770713  0.33394479  0.40508686    -0.14000
C388        C  0.47316907  0.34293888  0.43223109    -0.14000
C389        C  0.46167887  0.34830997  0.46848732     0.08200
C390        C  0.42474904  0.34284616  0.47764190    -0.14000
H391        H  0.37053100  0.33218349  0.45742964     0.12200
H392        H  0.45703231  0.32991088  0.37727565     0.12200
H393        H  0.00206442  0.34491628  0.42469890     0.12200
H394        H  0.41573120  0.34527476  0.50585747     0.12200
C395        C  0.44759453  0.40461029  0.33929780    -0.14000
C396        C  0.41098483  0.41245636  0.33035986     0.08200
C397        C  0.39982226  0.44924987  0.32850352    -0.14000
C398        C  0.42490174  0.47751270  0.33544598    -0.14000
C399        C  0.46084193  0.46917673  0.34644899     0.08200
C400        C  0.47220342  0.43260358  0.34765745    -0.14000
H401        H  0.45692979  0.37664165  0.34027483     0.12200
H402        H  0.37167007  0.45595418  0.32192628     0.12200
H403        H  0.41612766  0.50577239  0.33300344     0.12200
H404        H  0.00071632  0.42533153  0.35377760     0.12200
C405        C  0.33652563  0.33626412  0.83649576     0.44800
H406        H  0.31981507  0.31921327  0.81961551    -0.04200
C407        C  0.37652659  0.37696791  0.87679591     0.44900
H408        H  0.39413449  0.39478871  0.89445992    -0.04200
C409        C  0.36227075  0.36204044  0.81300949    -0.17900
C410        C  0.31290653  0.36207963  0.86209752    -0.17600
C411        C  0.36231623  0.31311821  0.86256795    -0.18000
C412        C  0.38305533  0.38360685  0.83638930    -0.18000
C413        C  0.33618505  0.38333857  0.88339896    -0.17600
C414        C  0.38324503  0.33673422  0.88380352    -0.17900
C415        C  0.37707422  0.20714657  0.87818669     0.44800
H416        H  0.39475886  0.18966212  0.89616077    -0.04200
C417        C  0.33679816  0.24704869  0.83724282     0.44900
H418        H  0.31994446  0.26376972  0.82013224    -0.04200
C419        C  0.33665319  0.20025504  0.88444300    -0.17900
C420        C  0.38364803  0.24749945  0.88446694    -0.17600
C421        C  0.38416207  0.20037674  0.83794924    -0.18000
C422        C  0.31328093  0.22133848  0.86301516    -0.18000
C423        C  0.36237583  0.27069208  0.86301426    -0.17600
C424        C  0.36284887  0.22121296  0.81417121    -0.17900
C425        C  0.24746797  0.24686178  0.83655240     0.44800
H426        H  0.26443008  0.26371134  0.81963444    -0.04200
C427        C  0.20688979  0.20670817  0.87701219     0.44900
H428        H  0.18908110  0.18916394  0.89482670    -0.04200
C429        C  0.22194536  0.22077814  0.81322225    -0.17900
C430        C  0.27077369  0.22141000  0.86285939    -0.17600
C431        C  0.22142023  0.27038011  0.86188736    -0.18000
C432        C  0.20080212  0.19941451  0.83668251    -0.18000
C433        C  0.24718018  0.20046885  0.88424190    -0.17600
C434        C  0.20012913  0.24705614  0.88316949    -0.17900
C435        C  0.20657792  0.37658964  0.87579960     0.43400
H436        H  0.18865630  0.39423465  0.89332026    -0.04200
C437        C  0.24733796  0.33621778  0.83593951     0.44900
H438        H  0.26437677  0.31926599  0.81929771    -0.04200
C439        C  0.24685009  0.38365490  0.88248651    -0.17900
C440        C  0.19998403  0.33627850  0.88251309    -0.17600
C441        C  0.20002463  0.38285814  0.83540614    -0.18000
C442        C  0.27046541  0.36222923  0.86169379    -0.18000
C443        C  0.22145844  0.31283119  0.86168415    -0.17600
C444        C  0.22159126  0.36181664  0.81220853    -0.17900
C445        C  0.24786464  0.33590875  0.74673638     0.44800
H446        H  0.26461181  0.31907469  0.76384570    -0.04200
C447        C  0.20777995  0.37603509  0.70580610     0.44900
H448        H  0.19016189  0.39358182  0.68781825    -0.04200
C449        C  0.22206158  0.36193904  0.76976143    -0.17900
C450        C  0.27145238  0.36140953  0.72076167    -0.17600
C451        C  0.22218203  0.31238218  0.72106622    -0.18000
C452        C  0.20118306  0.38325218  0.74606398    -0.18000
C453        C  0.24812752  0.38237155  0.69912362    -0.17600
C454        C  0.20118721  0.33568962  0.69947295    -0.17900
C455        C  0.33711402  0.33572921  0.74715148     0.44800
H456        H  0.32009745  0.31893337  0.76406536    -0.04200
C457        C  0.37779892  0.37579848  0.70671552     0.44900
H458        H  0.39563233  0.39335685  0.68893718    -0.04200
C459        C  0.31391068  0.36148073  0.72114940    -0.17900
C460        C  0.36285720  0.36157300  0.77052964    -0.17600
C461        C  0.36301568  0.31217368  0.72165520    -0.18000
C462        C  0.33748365  0.38267156  0.70007125    -0.18000
C463        C  0.38441280  0.38249207  0.74701540    -0.17600
C464        C  0.38448614  0.33546542  0.70046899    -0.17900
C465        C  0.20762151  0.20620227  0.70700778     0.44800
H466        H  0.18987389  0.18855082  0.68931210    -0.04200
C467        C  0.24794548  0.24658060  0.74731592     0.44900
H468        H  0.26479205  0.26354320  0.76415086    -0.04200
C469        C  0.24798827  0.19914317  0.70079720    -0.17900
C470        C  0.20107776  0.24650170  0.70024096    -0.17600
C471        C  0.20060082  0.19993385  0.74732912    -0.18000
C472        C  0.27138387  0.22054756  0.72186653    -0.18000
C473        C  0.22231803  0.26994499  0.72128270    -0.17600
C474        C  0.22193012  0.22095939  0.77076524    -0.17900
C475        C  0.33716106  0.24643935  0.74794043     0.44800
H476        H  0.32023395  0.26343193  0.76465102    -0.04200
C477        C  0.37768594  0.20593832  0.70798638     0.44900
H478        H  0.39550365  0.18825607  0.69040523    -0.04200
C479        C  0.36275623  0.22069415  0.77166127    -0.17900
C480        C  0.31385539  0.22061923  0.72204257    -0.17600
C481        C  0.36309266  0.26973176  0.72213655    -0.18000
C482        C  0.38388053  0.19920853  0.74844965    -0.18000
C483        C  0.33741689  0.19941260  0.70098496    -0.17600
C484        C  0.38428852  0.24623139  0.70109255    -0.17900
O485        O  0.99596032  0.01737828  0.82300315    -0.72400
O486        O  0.08764539  0.06568309  0.82326601    -0.72600
O487        O  0.06592810  0.99577520  0.82243124    -0.72500
O488        O  0.01760197  0.08734391  0.82384512    -0.72500
O489        O  0.00311481  0.07611823  0.88043810    -0.72400
O490        O  0.08091755  0.00531324  0.87915419    -0.72500
O491        O  0.07754109  0.07960895  0.88013806    -0.72400
O492        O  0.00660586  0.00186769  0.87945278    -0.72600
V493        V  0.04178490  0.04154597  0.82371950     1.35200
V494        V  0.04204136  0.04072626  0.87982520     1.35200
C495        C  0.48790145  0.49787721  0.85022582     0.76800
C496        C  0.09591006  0.08447872  0.85090341     0.76900
C497        C  0.08530600  0.48710209  0.84969795     0.76800
C498        C  0.49863997  0.09482034  0.85134842     0.76700
O499        O  0.00331780  0.00655651  0.70390440    -0.72400
O500        O  0.08134097  0.07714602  0.70376666    -0.72600
O501        O  0.07772425  0.00291170  0.70336112    -0.72500
O502        O  0.00701176  0.08080522  0.70435192    -0.72500
O503        O  0.99691605  0.06551222  0.76094273    -0.72400
O504        O  0.08861764  0.01723414  0.76000618    -0.72500
O505        O  0.06689477  0.08716711  0.76054684    -0.72400
O506        O  0.01847847  0.99558435  0.76036636    -0.72600
V507        V  0.04234719  0.04184399  0.70380670     1.35200
V508        V  0.04273312  0.04137352  0.75989785     1.35200
C509        C  0.49884208  0.48783538  0.73299571     0.76800
C510        C  0.08598827  0.09538636  0.73303876     0.76900
C511        C  0.09626148  0.49817609  0.73233369     0.76800
C512        C  0.48852799  0.08474620  0.73370900     0.76700
O513        O  0.32381473  0.01661990  0.58799456    -0.72400
O514        O  0.32378767  0.06602319  0.49691259    -0.72600
O515        O  0.32348734  0.99588696  0.51773990    -0.72500
O516        O  0.32409369  0.08677234  0.56720652    -0.72500
O517        O  0.38074014  0.07600059  0.58163921    -0.72400
O518        O  0.38015883  0.00614535  0.50297612    -0.72500
O519        O  0.38055722  0.08033748  0.50720467    -0.72400
O520        O  0.38040067  0.00184381  0.57729802    -0.72600
V521        V  0.32438223  0.04133002  0.54246382     1.35200
V522        V  0.38048562  0.04108795  0.54228156     1.35200
C523        C  0.35123293  0.49768747  0.59557286     0.76800
C524        C  0.35149378  0.08553785  0.98889610     0.76900
C525        C  0.35088757  0.48835579  0.99752143     0.76800
C526        C  0.35161670  0.09447946  0.58646055     0.76700
O527        O  0.08690209  0.32361802  0.56781015    -0.72400
O528        O  0.99785251  0.32416512  0.51544367    -0.72600
O529        O  0.06858070  0.32380910  0.49706991    -0.72500
O530        O  0.01617657  0.32395746  0.58617112    -0.72500
O531        O  0.00344964  0.38124773  0.57681554    -0.72400
O532        O  0.08186313  0.38096837  0.50641295    -0.72500
O533        O  0.00749718  0.38136978  0.50241533    -0.72400
O534        O  0.07785136  0.38088024  0.58077717    -0.72600
V535        V  0.04237952  0.32464975  0.54162034     1.35200
V536        V  0.04266740  0.38096534  0.54160381     1.35200
C537        C  0.09541549  0.35134049  0.58630335     0.76800
C538        C  0.48966696  0.35247317  0.99667227     0.76900
C539        C  0.08719178  0.35217042  0.98854948     0.76800
C540        C  0.49801538  0.35146004  0.59482640     0.76700
O541        O  0.20441940  0.00560740  0.58075628    -0.72400
O542        O  0.20407698  0.07688973  0.50334093    -0.72600
O543        O  0.20413816  0.00262562  0.50639909    -0.72500
O544        O  0.20437448  0.07988833  0.57776497    -0.72500
O545        O  0.26106111  0.06516727  0.58785031    -0.72400
O546        O  0.26073580  0.01744198  0.49582013    -0.72500
O547        O  0.26077178  0.08724476  0.51791543    -0.72400
O548        O  0.26102647  0.99538678  0.56574022    -0.72600
V549        V  0.20422398  0.04125834  0.54206783     1.35200
V550        V  0.26031747  0.04131280  0.54183523     1.35200
C551        C  0.23376876  0.48749444  0.58483991     0.76800
C552        C  0.23282075  0.09538738  0.99873396     0.76900
C553        C  0.23293448  0.49805012  0.98789883     0.76800
C554        C  0.23363613  0.08428538  0.59616998     0.76700
O555        O  0.08712632  0.25906422  0.51613158    -0.72400
O556        O  0.99826440  0.25892516  0.56893165    -0.72600
O557        O  0.06899724  0.25873587  0.58698477    -0.72500
O558        O  0.01629893  0.25924064  0.49809315    -0.72500
O559        O  0.00347705  0.20189518  0.50704453    -0.72400
O560        O  0.08157217  0.20141254  0.57770722    -0.72500
O561        O  0.00722407  0.20151319  0.58145684    -0.72400
O562        O  0.07789060  0.20180306  0.50328590    -0.72600
V563        V  0.04267380  0.25819506  0.54253102     1.35200
V564        V  0.04254854  0.20183854  0.54236855     1.35200
C565        C  0.09464656  0.23215244  0.99684749     0.76800
C566        C  0.48959573  0.23136528  0.58719836     0.76900
C567        C  0.08727933  0.23081197  0.59538789     0.76800
C568        C  0.49733653  0.23197891  0.99008067     0.76700
C569        C  0.34052674  0.13520648  0.68024373    -0.14000
C570        C  0.33124201  0.17173756  0.67222672     0.08200
C571        C  0.32974364  0.18285604  0.63534759    -0.14000
C572        C  0.33685690  0.15782166  0.60714832    -0.14000
C573        C  0.34769741  0.12188209  0.61554019     0.08200
C574        C  0.34888997  0.11055550  0.65222764    -0.14000
H575        H  0.34232710  0.12610515  0.70836177     0.12200
H576        H  0.32318766  0.21094574  0.62849870     0.12200
H577        H  0.33453270  0.16661380  0.57883657     0.12200
H578        H  0.35575629  0.08248648  0.65915191     0.12200
C579        C  0.39973856  0.24847814  0.63503337    -0.14000
C580        C  0.41116623  0.25263011  0.67160636     0.08200
C581        C  0.44858258  0.24904252  0.67986433    -0.14000
C582        C  0.47388608  0.24036448  0.65244487    -0.14000
C583        C  0.46214737  0.23518515  0.61622753     0.08200
C584        C  0.42514322  0.24056111  0.60739087    -0.14000
H585        H  0.37104968  0.25089472  0.62807395     0.12200
H586        H  0.45807955  0.25276788  0.70766449     0.12200
H587        H  0.00272924  0.23827521  0.65940459     0.12200
H588        H  0.41591827  0.23824588  0.57923640     0.12200
C589        C  0.40018089  0.13352253  0.75692459    -0.14000
C590        C  0.41135154  0.17033779  0.75521809     0.08200
C591        C  0.44797706  0.17819084  0.74626251    -0.14000
C592        C  0.47250703  0.15022758  0.73755077    -0.14000
C593        C  0.46106173  0.11365666  0.73837003     0.08200
C594        C  0.42516658  0.10528426  0.74954260    -0.14000
H595        H  0.37202738  0.12678681  0.76350631     0.12200
H596        H  0.45731155  0.20618141  0.74529920     0.12200
H597        H  0.50062402  0.15710303  0.73076230     0.12200
H598        H  0.41633771  0.07701526  0.75175341     0.12200
C599        C  0.13507785  0.24931282  0.68490542    -0.14000
C600        C  0.17166904  0.25293241  0.67336276     0.08200
C601        C  0.17989218  0.24852676  0.63603383    -0.14000
C602        C  0.15247892  0.23927262  0.61097564    -0.14000
C603        C  0.11624424  0.23462359  0.62282917     0.08200
C604        C  0.10739645  0.24101093  0.65968225    -0.14000
H605        H  0.12813678  0.25250202  0.71353107     0.12200
H606        H  0.20769366  0.25195262  0.62644610     0.12200
H607        H  0.15940343  0.23641991  0.58220550     0.12200
H608        H  0.07920941  0.23921551  0.66892352     0.12200
C609        C  0.25562164  0.13321204  0.68484643    -0.14000
C610        C  0.25445310  0.17001951  0.67348840     0.08200
C611        C  0.24599448  0.17779219  0.63670470    -0.14000
C612        C  0.23747937  0.14978529  0.61214448    -0.14000
C613        C  0.23791417  0.11322034  0.62371563     0.08200
C614        C  0.24838049  0.10491863  0.65986282    -0.14000
H615        H  0.26184553  0.12651587  0.71310083     0.12200
H616        H  0.24547137  0.20574778  0.62719403     0.12200
H617        H  0.23121081  0.15662051  0.58387984     0.12200
H618        H  0.25027021  0.07666659  0.66884882     0.12200
C619        C  0.17957208  0.13589181  0.74519296    -0.14000
C620        C  0.17163292  0.17255993  0.75371606     0.08200
C621        C  0.13482719  0.18387615  0.75456009    -0.14000
C622        C  0.10659095  0.15889613  0.74730471    -0.14000
C623        C  0.11498004  0.12278976  0.73718577     0.08200
C624        C  0.15156003  0.11125173  0.73688195    -0.14000
H625        H  0.20764520  0.12665446  0.74398797     0.12200
H626        H  0.12808262  0.21206087  0.76066960     0.12200
H627        H  0.07830819  0.16782447  0.74898799     0.12200
H628        H  0.15840097  0.08304640  0.73061989     0.12200
C629        C  0.45054775  0.33345045  0.68487258    -0.14000
C630        C  0.41396610  0.32899071  0.67356026     0.08200
C631        C  0.40562720  0.33264664  0.63613783    -0.14000
C632        C  0.43289796  0.34174130  0.61075976    -0.14000
C633        C  0.46908788  0.34729548  0.62239827     0.08200
C634        C  0.47805111  0.34180688  0.65938911    -0.14000
H635        H  0.45760271  0.33103998  0.71355542     0.12200
H636        H  0.37782460  0.32875979  0.62671463     0.12200
H637        H  0.42586545  0.34396046  0.58195227     0.12200
H638        H  0.00606679  0.34467955  0.66817032     0.12200
C639        C  0.33995047  0.40398437  0.63596743    -0.14000
C640        C  0.33111179  0.41166193  0.67264363     0.08200
C641        C  0.32935078  0.44838805  0.68395457    -0.14000
C642        C  0.33634245  0.47677533  0.65898884    -0.14000
C643        C  0.34713878  0.46863015  0.62296078     0.08200
C644        C  0.34819826  0.43212809  0.61140905    -0.14000
H645        H  0.34103324  0.37604222  0.62656580     0.12200
H646        H  0.32273433  0.45494032  0.71213175     0.12200
H647        H  0.33399310  0.50498771  0.66788875     0.12200
H648        H  0.35478236  0.42545241  0.58320144     0.12200
C649        C  0.43321427  0.47148454  0.73569145    -0.14000
C650        C  0.46988099  0.46028484  0.73706383     0.08200
C651        C  0.47827536  0.42433087  0.74788198    -0.14000
C652        C  0.45006307  0.39917229  0.75480467    -0.14000
C653        C  0.41319100  0.41020219  0.75319206     0.08200
C654        C  0.40520672  0.44673125  0.74390040    -0.14000
H655        H  0.42629141  0.49955143  0.72881056     0.12200
H656        H  0.50657459  0.41561674  0.75027897     0.12200
H657        H  0.45689197  0.37107328  0.76133661     0.12200
H658        H  0.37712452  0.45579876  0.74211471     0.12200
C659        C  0.13684579  0.33306948  0.67865611    -0.14000
C660        C  0.17417863  0.32916899  0.67017098     0.08200
C661        C  0.18541299  0.33327964  0.63350937    -0.14000
C662        C  0.15989707  0.34151079  0.60603687    -0.14000
C663        C  0.12300656  0.34723982  0.61513374     0.08200
C664        C  0.11145182  0.34209031  0.65142260    -0.14000
H665        H  0.12750175  0.32932209  0.70652183     0.12200
H666        H  0.21405899  0.33076392  0.62637875     0.12200
H667        H  0.16895570  0.34383373  0.57781588     0.12200
H668        H  0.08269833  0.34450763  0.65854985     0.12200
C669        C  0.24544398  0.44650480  0.67833591    -0.14000
C670        C  0.25455547  0.40998173  0.67032367     0.08200
C671        C  0.25598988  0.39892926  0.63345780    -0.14000
C672        C  0.24888304  0.42406753  0.60525941    -0.14000
C673        C  0.23806584  0.45996076  0.61372573     0.08200
C674        C  0.23703022  0.47121145  0.65036700    -0.14000
H675        H  0.24389258  0.45556711  0.70642998     0.12200
H676        H  0.26234295  0.37080745  0.62664035     0.12200
H677        H  0.25106047  0.41537390  0.57693757     0.12200
H678        H  0.23085123  0.99892982  0.65741334     0.12200
C679        C  0.13704552  0.40459710  0.74354284    -0.14000
C680        C  0.17375588  0.41235949  0.75218182     0.08200
C681        C  0.18499578  0.44915984  0.75369077    -0.14000
C682        C  0.15993688  0.47747345  0.74672513    -0.14000
C683        C  0.12384228  0.46921917  0.73617405     0.08200
C684        C  0.11239864  0.43264818  0.73530941    -0.14000
H685        H  0.12762121  0.37664662  0.74277667     0.12200
H686        H  0.21315647  0.45584645  0.76021781     0.12200
H687        H  0.16880177  0.50571898  0.74897554     0.12200
H688        H  0.08416764  0.42583930  0.72897376     0.12200
C689        C  0.15226481  0.34328346  0.97231302    -0.14000
C690        C  0.11594588  0.34822593  0.96085768     0.08200
C691        C  0.10672283  0.34217725  0.92403407    -0.14000
C692        C  0.13409284  0.33386756  0.89846677    -0.14000
C693        C  0.17075981  0.32989154  0.90962382     0.08200
C694        C  0.17936984  0.33405490  0.94689754    -0.14000
H695        H  0.15949153  0.34589211  0.00102996     0.12200
H696        H  0.07847382  0.34429359  0.91507069     0.12200
H697        H  0.12686274  0.33109830  0.86986247     0.12200
H698        H  0.20722872  0.33031703  0.95617949     0.12200
C699        C  0.13434962  0.39887875  0.82745531    -0.14000
C700        C  0.17113935  0.41022793  0.82874448     0.08200
C701        C  0.17897035  0.44685630  0.83756626    -0.14000
C702        C  0.15088784  0.47137384  0.84590872    -0.14000
C703        C  0.11432475  0.45979869  0.84519017     0.08200
C704        C  0.10603467  0.42379376  0.83459911    -0.14000
H705        H  0.12768887  0.37067862  0.82125919     0.12200
H706        H  0.20701151  0.45614140  0.83900695     0.12200
H707        H  0.15767271  0.99956945  0.85176798     0.12200
H708        H  0.07777287  0.41484129  0.83264067     0.12200
C709        C  0.25401824  0.44955133  0.89882533    -0.14000
C710        C  0.25303880  0.41268375  0.90998517     0.08200
C711        C  0.24482259  0.40468378  0.94678034    -0.14000
C712        C  0.23652631  0.43254925  0.97159579    -0.14000
C713        C  0.23678475  0.46918147  0.96021105     0.08200
C714        C  0.24686141  0.47768157  0.92399872    -0.14000
H715        H  0.26021852  0.45643338  0.87061373     0.12200
H716        H  0.24455884  0.37669244  0.95617136     0.12200
H717        H  0.23019779  0.42597554  0.49980393     0.12200
H718        H  0.24805042  0.00620844  0.91512001     0.12200
C719        C  0.18472323  0.13342638  0.82943889    -0.14000
C720        C  0.17344308  0.17023435  0.83031973     0.08200
C721        C  0.13661511  0.17801804  0.83844241    -0.14000
C722        C  0.11193795  0.15001998  0.84691528    -0.14000
C723        C  0.12348228  0.11346733  0.84689174     0.08200
C724        C  0.15967778  0.10515514  0.83675619    -0.14000
H725        H  0.21295023  0.12670562  0.82326649     0.12200
H726        H  0.12714920  0.20596933  0.83870540     0.12200
H727        H  0.08362739  0.15684756  0.85284939     0.12200
H728        H  0.16862471  0.07690083  0.83507099     0.12200
C729        C  0.25428953  0.18415877  0.95008941    -0.14000
C730        C  0.25333771  0.17298835  0.91323964     0.08200
C731        C  0.24452121  0.13638458  0.90525348    -0.14000
C732        C  0.23606288  0.11166783  0.93321605    -0.14000
C733        C  0.23662557  0.12301197  0.96983976     0.08200
C734        C  0.24697729  0.15905986  0.97829302    -0.14000
H735        H  0.26045094  0.21232694  0.95689418     0.12200
H736        H  0.24335509  0.12722058  0.87717461     0.12200
H737        H  0.22965773  0.08350623  0.92630587     0.12200
H738        H  0.25067078  0.16750012  0.50645865     0.12200
C739        C  0.18431914  0.25020323  0.94903196    -0.14000
C740        C  0.17300940  0.25363561  0.91234725     0.08200
C741        C  0.13568153  0.24932917  0.90397647    -0.14000
C742        C  0.11038123  0.24054554  0.93141618    -0.14000
C743        C  0.12203059  0.23619043  0.96778138     0.08200
C744        C  0.15889250  0.24236979  0.97668880    -0.14000
H745        H  0.21295549  0.25307648  0.95606813     0.12200
H746        H  0.12627641  0.25250951  0.87607102     0.12200
H747        H  0.08164161  0.23771949  0.92439084     0.12200
H748        H  0.16923493  0.23852075  0.50553800     0.12200
C749        C  0.33607073  0.10635100  0.92564450    -0.14000
C750        C  0.34736501  0.11459226  0.96149897     0.08200
C751        C  0.34822571  0.15111363  0.97302298    -0.14000
C752        C  0.33924008  0.17916294  0.94859436    -0.14000
C753        C  0.33009245  0.17139876  0.91199611     0.08200
C754        C  0.32848639  0.13464811  0.90076380    -0.14000
H755        H  0.33377581  0.07811530  0.91680054     0.12200
H756        H  0.35437566  0.15733677  0.50101893     0.12200
H757        H  0.34028083  0.20713399  0.95793783     0.12200
H758        H  0.32170641  0.12800941  0.87264220     0.12200
C759        C  0.40500559  0.13616664  0.84160663    -0.14000
C760        C  0.41297639  0.17263297  0.83201746     0.08200
C761        C  0.44985965  0.18360614  0.83004885    -0.14000
C762        C  0.47807807  0.15839347  0.83672644    -0.14000
C763        C  0.46971401  0.12247391  0.84773989     0.08200
C764        C  0.43302861  0.11139000  0.84964057    -0.14000
H765        H  0.37692420  0.12714689  0.84370514     0.12200
H766        H  0.45670168  0.21166937  0.82334101     0.12200
H767        H  0.50637334  0.16703020  0.83394379     0.12200
H768        H  0.42609492  0.08336497  0.85670326     0.12200
C769        C  0.44964942  0.24955816  0.90008915    -0.14000
C770        C  0.41308789  0.25414488  0.91140162     0.08200
C771        C  0.40478941  0.25085501  0.94888317    -0.14000
C772        C  0.43211408  0.24198950  0.97431023    -0.14000
C773        C  0.46827547  0.23623142  0.96263882     0.08200
C774        C  0.47716835  0.24137793  0.92558505    -0.14000
H775        H  0.45666693  0.25165865  0.87136939     0.12200
H776        H  0.37698648  0.25477189  0.95831229     0.12200
H777        H  0.42575535  0.23861146  0.50281304     0.12200
H778        H  0.00492434  0.23932584  0.91695985     0.12200
C779        C  0.33867793  0.44761346  0.90389662    -0.14000
C780        C  0.32966384  0.41104087  0.91202433     0.08200
C781        C  0.32832000  0.39999037  0.94892984    -0.14000
C782        C  0.33560146  0.42506741  0.97704332    -0.14000
C783        C  0.34641911  0.46098629  0.96850811     0.08200
C784        C  0.34720350  0.47231133  0.93181438    -0.14000
H785        H  0.34020091  0.45669603  0.87576201     0.12200
H786        H  0.32186863  0.37188695  0.95585309     0.12200
H787        H  0.33353293  0.41629784  0.00538340     0.12200
H788        H  0.35398038  0.50038730  0.92481046     0.12200
C789        C  0.39930471  0.33547751  0.94976165    -0.14000
C790        C  0.41036488  0.33059129  0.91315802     0.08200
C791        C  0.44773568  0.33388441  0.90452292    -0.14000
C792        C  0.47335277  0.34282241  0.93159450    -0.14000
C793        C  0.46197184  0.34872071  0.96782802     0.08200
C794        C  0.42498435  0.34381234  0.97702945    -0.14000
H795        H  0.37067597  0.33332367  0.95703697     0.12200
H796        H  0.45695784  0.32969759  0.87668933     0.12200
H797        H  0.00193258  0.34467321  0.92420276     0.12200
H798        H  0.41600243  0.34666613  0.00521485     0.12200
C799        C  0.44715516  0.40449315  0.83826129    -0.14000
C800        C  0.41048029  0.41244293  0.82972347     0.08200
C801        C  0.39929003  0.44923747  0.82823161    -0.14000
C802        C  0.42436728  0.47743329  0.83534456    -0.14000
C803        C  0.46041131  0.46899956  0.84587781     0.08200
C804        C  0.47185062  0.43243136  0.84653101    -0.14000
H805        H  0.45644012  0.37648266  0.83910207     0.12200
H806        H  0.37110725  0.45598580  0.82184702     0.12200
H807        H  0.41554469  0.50571048  0.83331242     0.12200
H808        H  0.99998900  0.42526942  0.85263555     0.12200
C809        C  0.33681413  0.83620954  0.33683275     0.44800
H810        H  0.32008293  0.81924998  0.31989526    -0.04200
C811        C  0.37687029  0.87669798  0.37729621     0.44900
H812        H  0.39450611  0.89442032  0.39503324    -0.04200
C813        C  0.36269379  0.86192650  0.31345811    -0.17900
C814        C  0.31322975  0.86203482  0.36244970    -0.17600
C815        C  0.36248314  0.81293072  0.36286450    -0.18000
C816        C  0.38354054  0.88336881  0.33691482    -0.18000
C817        C  0.33653992  0.88319511  0.38383043    -0.17600
C818        C  0.38338550  0.83642370  0.38423991    -0.17900
C819        C  0.37733919  0.70690721  0.37789088     0.44800
H820        H  0.39499326  0.68934245  0.39582132    -0.04200
C821        C  0.33709015  0.74700590  0.33709162     0.44900
H822        H  0.32023579  0.76379731  0.32003612    -0.04200
C823        C  0.33691939  0.69993807  0.38397574    -0.17900
C824        C  0.38383312  0.74723367  0.38438225    -0.17600
C825        C  0.38453686  0.70037651  0.33766805    -0.18000
C826        C  0.31356726  0.72121211  0.36272875    -0.18000
C827        C  0.36259179  0.77052067  0.36302637    -0.17600
C828        C  0.36319735  0.72125173  0.31397070    -0.17900
C829        C  0.24771861  0.74694590  0.33656010     0.44800
H830        H  0.26466547  0.76382024  0.31965199    -0.04200
C831        C  0.20722915  0.70671999  0.37703406     0.44900
H832        H  0.18948084  0.68910507  0.39483989    -0.04200
C833        C  0.22221785  0.72086493  0.31321493    -0.17900
C834        C  0.27107800  0.72143782  0.36272474    -0.17600
C835        C  0.22169313  0.77038311  0.36205067    -0.18000
C836        C  0.20109350  0.69951142  0.33668589    -0.18000
C837        C  0.24753559  0.70051695  0.38413948    -0.17600
C838        C  0.20046420  0.74701747  0.38336960    -0.17900
C839        C  0.20687797  0.87652326  0.37618428     0.43400
H840        H  0.18896512  0.89414054  0.39373997    -0.04200
C841        C  0.24764335  0.83621943  0.33627014     0.44900
H842        H  0.26467880  0.81931323  0.31960115    -0.04200
C843        C  0.24716926  0.88357819  0.38284043    -0.17900
C844        C  0.20026203  0.83620768  0.38283898    -0.17600
C845        C  0.20031199  0.88284684  0.33579503    -0.18000
C846        C  0.27078163  0.86219613  0.36202924    -0.18000
C847        C  0.22175885  0.81281096  0.36197923    -0.17600
C848        C  0.22189031  0.86181169  0.31256591    -0.17900
C849        C  0.24820126  0.83585945  0.24705528     0.44800
H850        H  0.26495385  0.81899817  0.26414952    -0.04200
C851        C  0.20816462  0.87607828  0.20616299     0.44900
H852        H  0.19058317  0.89369222  0.18820857    -0.04200
C853        C  0.22238162  0.86188320  0.27011059    -0.17900
C854        C  0.27184506  0.86140358  0.22117750    -0.17600
C855        C  0.22252997  0.81239222  0.22125521    -0.18000
C856        C  0.20153619  0.88322236  0.24643158    -0.18000
C857        C  0.24854128  0.88238453  0.19954779    -0.17600
C858        C  0.20152620  0.83575837  0.19969615    -0.17900
C859        C  0.33755399  0.83572903  0.24752536     0.44800
H860        H  0.32051834  0.81888029  0.26437235    -0.04200
C861        C  0.37822467  0.87595102  0.20722403     0.44900
H862        H  0.39603617  0.89358990  0.18950270    -0.04200
C863        C  0.31432301  0.86154293  0.22162551    -0.17900
C864        C  0.36330913  0.86150333  0.27098491    -0.17600
C865        C  0.36344052  0.81228601  0.22189569    -0.18000
C866        C  0.33789625  0.88283411  0.20064289    -0.18000
C867        C  0.38486790  0.88247225  0.24754247    -0.17600
C868        C  0.38489198  0.83565362  0.20076744    -0.17900
C869        C  0.20807769  0.70619809  0.20693624     0.44800
H870        H  0.19035685  0.68856913  0.18919487    -0.04200
C871        C  0.24834503  0.74654959  0.24731649     0.44900
H872        H  0.26516899  0.76348721  0.26418247    -0.04200
C873        C  0.24844707  0.69917931  0.20073615    -0.17900
C874        C  0.20154878  0.74651704  0.20018183    -0.17600
C875        C  0.20103053  0.69986283  0.24726395    -0.18000
C876        C  0.27180986  0.72056542  0.22181523    -0.18000
C877        C  0.22273071  0.76994442  0.22131284    -0.17600
C878        C  0.22230069  0.72093134  0.27073863    -0.17900
C879        C  0.33751311  0.74649220  0.24783546     0.44800
H880        H  0.32055798  0.76341398  0.26456571    -0.04200
C881        C  0.37811399  0.70610892  0.20783983     0.44900
H882        H  0.39598338  0.68847377  0.19025897    -0.04200
C883        C  0.36311371  0.72077059  0.27150236    -0.17900
C884        C  0.31427151  0.72069247  0.22187716    -0.17600
C885        C  0.36346471  0.76985985  0.22216861    -0.18000
C886        C  0.38426054  0.69933758  0.24828407    -0.18000
C887        C  0.33786280  0.69956995  0.20072907    -0.17600
C888        C  0.38473646  0.74642869  0.20114980    -0.17900
O889        O  0.99649228  0.51725024  0.32328010    -0.72400
O890        O  0.08822366  0.56547799  0.32318293    -0.72600
O891        O  0.06645215  0.49554330  0.32270121    -0.72500
O892        O  0.01819940  0.58718100  0.32380585    -0.72500
O893        O  0.00377632  0.57612794  0.38045456    -0.72400
O894        O  0.08156412  0.50538537  0.37933938    -0.72500
O895        O  0.07815231  0.57963139  0.38001511    -0.72400
O896        O  0.00729174  0.50184521  0.37971891    -0.72600
V897        V  0.04234704  0.54136113  0.32381181     1.35200
V898        V  0.04268695  0.54074894  0.37991227     1.35200
C899        C  0.48843705  0.99769965  0.35061917     0.76800
C900        C  0.09649692  0.58438359  0.35074912     0.76900
C901        C  0.08560691  0.98722297  0.35016783     0.76800
C902        C  0.49917795  0.59515374  0.35139672     0.76700
O903        O  0.00337848  0.50660580  0.20408325    -0.72400
O904        O  0.08173759  0.57685319  0.20378440    -0.72600
O905        O  0.07775838  0.50258058  0.20378117    -0.72500
O906        O  0.00739906  0.58084150  0.20414948    -0.72500
O907        O  0.99712421  0.56583421  0.26079579    -0.72400
O908        O  0.08861849  0.51728872  0.26032282    -0.72500
O909        O  0.06713956  0.58727709  0.26045889    -0.72400
O910        O  0.01846224  0.49586122  0.26060268    -0.72600
V911        V  0.04257266  0.54171766  0.20389556     1.35200
V912        V  0.04283592  0.54156145  0.25997901     1.35200
C913        C  0.49894285  0.98802202  0.23330823     0.76800
C914        C  0.08635269  0.59526734  0.23296266     0.76900
C915        C  0.09651179  0.99810685  0.23294712     0.76800
C916        C  0.48936389  0.58549025  0.23356193     0.76700
O917        O  0.32400153  0.51680648  0.08727577    -0.72400
O918        O  0.32423263  0.56665134  0.99643870    -0.72600
O919        O  0.32359373  0.49643093  0.01693263    -0.72500
O920        O  0.32461661  0.58708502  0.06678318    -0.72500
O921        O  0.38122909  0.57601148  0.08114156    -0.72400
O922        O  0.38030791  0.50641951  0.00218245    -0.72500
O923        O  0.38109521  0.58062241  0.00672216    -0.72400
O924        O  0.38048910  0.50175771  0.07652834    -0.72600
V925        V  0.32470431  0.54174267  0.04185211     1.35200
V926        V  0.38080533  0.54120659  0.04165274     1.35200
C927        C  0.35152948  0.99734609  0.09560035     0.76800
C928        C  0.35128398  0.58516127  0.48834158     0.76900
C929        C  0.35083895  0.98790934  0.49835946     0.76800
C930        C  0.35220059  0.59464730  0.08601287     0.76700
O931        O  0.08720945  0.82385647  0.06754926    -0.72400
O932        O  0.99784395  0.82444906  0.01546092    -0.72600
O933        O  0.06848935  0.82423929  0.99681990    -0.72500
O934        O  0.01653318  0.82404651  0.08619046    -0.72500
O935        O  0.00370592  0.88134134  0.07707600    -0.72400
O936        O  0.08171059  0.88139952  0.00624682    -0.72500
O937        O  0.00734266  0.88169106  0.00259273    -0.72400
O938        O  0.07814170  0.88106140  0.08069213    -0.72600
V939        V  0.04252273  0.82491172  0.04150671     1.35200
V940        V  0.04272957  0.88121874  0.04165600     1.35200
C941        C  0.09575495  0.85152216  0.08613634     0.76800
C942        C  0.48949334  0.85225584  0.49707454     0.76900
C943        C  0.08700575  0.85168396  0.48853542     0.76800
C944        C  0.49773757  0.85186950  0.09435853     0.76700
O945        O  0.20436853  0.50604120  0.08098435    -0.72400
O946        O  0.20398756  0.57695037  0.00318773    -0.72600
O947        O  0.20386256  0.50264543  0.00656187    -0.72500
O948        O  0.20455349  0.58028612  0.07757614    -0.72500
O949        O  0.26131956  0.56565589  0.08740358    -0.72400
O950        O  0.26052284  0.51709488  0.99586629    -0.72500
O951        O  0.26085073  0.58705512  0.01729626    -0.72400
O952        O  0.26095369  0.49565598  0.06602364    -0.72600
V953        V  0.20419037  0.54147742  0.04207149     1.35200
V954        V  0.26031197  0.54136072  0.04165290     1.35200
C955        C  0.23384502  0.98747855  0.08539550     0.76800
C956        C  0.23314606  0.59551041  0.49840704     0.76900
C957        C  0.23325384  0.99826868  0.48775797     0.76800
C958        C  0.23391995  0.58478005  0.09578778     0.76700
O959        O  0.08727868  0.75963041  0.01624814    -0.72400
O960        O  0.99834712  0.75930070  0.06891745    -0.72600
O961        O  0.06913132  0.75914874  0.08705046    -0.72500
O962        O  0.01645733  0.75984981  0.99808237    -0.72500
O963        O  0.00313624  0.70269370  0.00740914    -0.72400
O964        O  0.08219451  0.70205164  0.07710852    -0.72500
O965        O  0.00788623  0.70206483  0.08179198    -0.72400
O966        O  0.07749061  0.70260026  0.00277063    -0.72600
V967        V  0.04279737  0.75874951  0.04257197     1.35200
V968        V  0.04268176  0.70247641  0.04226599     1.35200
C969        C  0.09536261  0.73181981  0.49762122     0.76800
C970        C  0.49058392  0.73145970  0.08811858     0.76900
C971        C  0.08779436  0.73134140  0.09502766     0.76800
C972        C  0.49745020  0.73167386  0.48985467     0.76700
C973        C  0.34060566  0.63533472  0.17979519    -0.14000
C974        C  0.33177047  0.67198373  0.17180145     0.08200
C975        C  0.33079774  0.68319101  0.13492107    -0.14000
C976        C  0.33808326  0.65817458  0.10672529    -0.14000
C977        C  0.34841280  0.62207782  0.11512444     0.08200
C978        C  0.34899280  0.61064986  0.15179727    -0.14000
H979        H  0.34189426  0.62611018  0.20789366     0.12200
H980        H  0.32454955  0.71134632  0.12806641     0.12200
H981        H  0.33619129  0.66707325  0.07841405     0.12200
H982        H  0.35539863  0.58247257  0.15872300     0.12200
C983        C  0.40072011  0.74888697  0.13537776    -0.14000
C984        C  0.41189501  0.75291913  0.17201551     0.08200
C985        C  0.44921878  0.74906424  0.18059723    -0.14000
C986        C  0.47466635  0.74012548  0.15339261    -0.14000
C987        C  0.46312796  0.73508856  0.11709184     0.08200
C988        C  0.42625654  0.74079296  0.10796888    -0.14000
H989        H  0.37210842  0.75153817  0.12818732     0.12200
H990        H  0.45850479  0.75274064  0.20847113     0.12200
H991        H  0.00331525  0.73773789  0.15974551     0.12200
H992        H  0.41723668  0.73863656  0.07973399     0.12200
C993        C  0.40065115  0.63370682  0.25585081    -0.14000
C994        C  0.41176439  0.67055013  0.25504241     0.08200
C995        C  0.44851104  0.67867910  0.24687522    -0.14000
C996        C  0.47326937  0.65092419  0.23810785    -0.14000
C997        C  0.46183222  0.61433499  0.23791756     0.08200
C998        C  0.42576232  0.60568959  0.24821973    -0.14000
H999        H  0.37245025  0.62678758  0.26198723     0.12200
H1000       H  0.45779472  0.70670704  0.24670024     0.12200
H1001       H  0.50152032  0.65795143  0.23207448     0.12200
H1002       H  0.41695219  0.57737022  0.24973136     0.12200
C1003       C  0.13561047  0.74906693  0.18470318    -0.14000
C1004       C  0.17219004  0.75300334  0.17324827     0.08200
C1005       C  0.18047634  0.74903604  0.13586839    -0.14000
C1006       C  0.15307462  0.74010934  0.11064138    -0.14000
C1007       C  0.11684564  0.73512259  0.12242666     0.08200
C1008       C  0.10799152  0.74092003  0.15937022    -0.14000
H1009       H  0.12863327  0.75181085  0.21336718     0.12200
H1010       H  0.20829948  0.75257283  0.12636209     0.12200
H1011       H  0.16001854  0.73765538  0.08183890     0.12200
H1012       H  0.07982490  0.73879448  0.16859995     0.12200
C1013       C  0.25606490  0.63336481  0.18454121    -0.14000
C1014       C  0.25499989  0.67020940  0.17331728     0.08200
C1015       C  0.24662126  0.67815798  0.13655498    -0.14000
C1016       C  0.23800428  0.65026386  0.11189484    -0.14000
C1017       C  0.23828251  0.61366040  0.12335980     0.08200
C1018       C  0.24871487  0.60519521  0.15947167    -0.14000
H1019       H  0.26228979  0.62654502  0.21276602     0.12200
H1020       H  0.24611689  0.70616493  0.12717527     0.12200
H1021       H  0.23175179  0.65721148  0.08365507     0.12200
H1022       H  0.25050346  0.57690597  0.16836200     0.12200
C1023       C  0.18000936  0.63579600  0.24470661    -0.14000
C1024       C  0.17210497  0.67239553  0.25359644     0.08200
C1025       C  0.13529389  0.68365027  0.25479273    -0.14000
C1026       C  0.10703625  0.65867670  0.24757312    -0.14000
C1027       C  0.11537767  0.62267058  0.23703809     0.08200
C1028       C  0.15197135  0.61119932  0.23632000    -0.14000
H1029       H  0.20807230  0.62658422  0.24327679     0.12200
H1030       H  0.12855713  0.71178987  0.26113354     0.12200
H1031       H  0.07875803  0.66755070  0.24957613     0.12200
H1032       H  0.15880365  0.58306096  0.22975362     0.12200
C1033       C  0.45083876  0.83389476  0.18467047    -0.14000
C1034       C  0.41419949  0.82928992  0.17361874     0.08200
C1035       C  0.40560313  0.83287438  0.13624131    -0.14000
C1036       C  0.43268075  0.84202223  0.11065810    -0.14000
C1037       C  0.46892277  0.84774273  0.12205828     0.08200
C1038       C  0.47813092  0.84235160  0.15900182    -0.14000
H1039       H  0.45810190  0.83154834  0.21330588     0.12200
H1040       H  0.37776564  0.82881607  0.12700274     0.12200
H1041       H  0.42546419  0.84413456  0.08188829     0.12200
H1042       H  0.00648795  0.84522019  0.16846429     0.12200
C1043       C  0.34005248  0.90385608  0.13645447    -0.14000
C1044       C  0.33151355  0.91174391  0.17315143     0.08200
C1045       C  0.33005097  0.94852275  0.18432225    -0.14000
C1046       C  0.33705601  0.97675624  0.15919251    -0.14000
C1047       C  0.34752955  0.96839611  0.12311620     0.08200
C1048       C  0.34828766  0.93184231  0.11171164    -0.14000
H1049       H  0.34083355  0.87587054  0.12716123     0.12200
H1050       H  0.32360929  0.95523686  0.21249794     0.12200
H1051       H  0.33492867  0.00501969  0.16798674     0.12200
H1052       H  0.35460203  0.92500981  0.08348165     0.12200
C1053       C  0.43333894  0.97163223  0.23655429    -0.14000
C1054       C  0.47002836  0.96046576  0.23752366     0.08200
C1055       C  0.47857714  0.92449175  0.24813468    -0.14000
C1056       C  0.45047588  0.89925446  0.25517336    -0.14000
C1057       C  0.41357430  0.91020882  0.25382518     0.08200
C1058       C  0.40544236  0.94677439  0.24482045    -0.14000
H1059       H  0.42631754  0.99972509  0.22988464     0.12200
H1060       H  0.50691132  0.91582057  0.25025845     0.12200
H1061       H  0.45740968  0.87113485  0.26150632     0.12200
H1062       H  0.37732593  0.95578562  0.24330270     0.12200
C1063       C  0.13715655  0.83318032  0.17865596    -0.14000
C1064       C  0.17452829  0.82934827  0.17027432     0.08200
C1065       C  0.18579996  0.83356217  0.13362261    -0.14000
C1066       C  0.16031451  0.84176927  0.10607671    -0.14000
C1067       C  0.12336195  0.84734887  0.11505368     0.08200
C1068       C  0.11178182  0.84213386  0.15134230    -0.14000
H1069       H  0.12775646  0.82947514  0.20651008     0.12200
H1070       H  0.21444875  0.83104111  0.12653246     0.12200
H1071       H  0.16944503  0.84415207  0.07788454     0.12200
H1072       H  0.08301306  0.84448823  0.15842118     0.12200
C1073       C  0.24608613  0.94652072  0.17884037    -0.14000
C1074       C  0.25502530  0.90997560  0.17077207     0.08200
C1075       C  0.25622155  0.89891282  0.13390358    -0.14000
C1076       C  0.24892155  0.92403206  0.10574675    -0.14000
C1077       C  0.23825312  0.95995283  0.11427364     0.08200
C1078       C  0.23754417  0.97123433  0.15091669    -0.14000
H1079       H  0.24473007  0.95558492  0.20694780     0.12200
H1080       H  0.26254819  0.87079470  0.12705591     0.12200
H1081       H  0.25088236  0.91531835  0.07741553     0.12200
H1082       H  0.23006583  0.49937649  0.15789646     0.12200
C1083       C  0.13736760  0.90449729  0.24419419    -0.14000
C1084       C  0.17411390  0.91230665  0.25263164     0.08200
C1085       C  0.18533310  0.94911814  0.25406184    -0.14000
C1086       C  0.16022225  0.97740613  0.24718420    -0.14000
C1087       C  0.12406632  0.96911972  0.23687633     0.08200
C1088       C  0.11263270  0.93253530  0.23614916    -0.14000
H1089       H  0.12799095  0.87652082  0.24341130     0.12200
H1090       H  0.21352050  0.95583422  0.26043391     0.12200
H1091       H  0.16909497  0.00566023  0.24930173     0.12200
H1092       H  0.08437484  0.92570254  0.22996597     0.12200
C1093       C  0.15210632  0.84258843  0.47251711    -0.14000
C1094       C  0.11584610  0.84769369  0.46093109     0.08200
C1095       C  0.10678802  0.84196203  0.42402109    -0.14000
C1096       C  0.13427237  0.83378498  0.39852451    -0.14000
C1097       C  0.17089949  0.82973536  0.40980483     0.08200
C1098       C  0.17934267  0.83361262  0.44714765    -0.14000
H1099       H  0.15920544  0.84497913  0.50128549     0.12200
H1100       H  0.07858585  0.84420765  0.41494140     0.12200
H1101       H  0.12715802  0.83114898  0.36988478     0.12200
H1102       H  0.20717498  0.82986543  0.45652427     0.12200
C1103       C  0.13461570  0.89894612  0.32795964    -0.14000
C1104       C  0.17142162  0.91026145  0.32921671     0.08200
C1105       C  0.17927560  0.94687325  0.33810895    -0.14000
C1106       C  0.15119871  0.97141716  0.34643667    -0.14000
C1107       C  0.11461815  0.95988243  0.34569710     0.08200
C1108       C  0.10631229  0.92386940  0.33514670    -0.14000
H1109       H  0.12792813  0.87077601  0.32167319     0.12200
H1110       H  0.20733260  0.95611855  0.33964730     0.12200
H1111       H  0.15824320  0.49934661  0.35281860     0.12200
H1112       H  0.07804515  0.91493257  0.33318613     0.12200
C1113       C  0.25487349  0.94943946  0.39900007    -0.14000
C1114       C  0.25341229  0.91261964  0.41026504     0.08200
C1115       C  0.24473482  0.90478333  0.44698212    -0.14000
C1116       C  0.23638905  0.93277583  0.47160458    -0.14000
C1117       C  0.23727817  0.96937235  0.46016104     0.08200
C1118       C  0.24788140  0.97770467  0.42406237    -0.14000
H1119       H  0.26127711  0.95617416  0.37079222     0.12200
H1120       H  0.24397686  0.87681446  0.45641581     0.12200
H1121       H  0.23064360  0.92560560  0.99983783     0.12200
H1122       H  0.24985451  0.50586287  0.41487863     0.12200
C1123       C  0.18512562  0.63355119  0.32905781    -0.14000
C1124       C  0.17378683  0.67032971  0.33029784     0.08200
C1125       C  0.13701531  0.67801738  0.33874179    -0.14000
C1126       C  0.11243153  0.64993326  0.34713286    -0.14000
C1127       C  0.12400272  0.61339975  0.34665232     0.08200
C1128       C  0.16014088  0.60519487  0.33622887    -0.14000
H1129       H  0.21334505  0.62692161  0.32273784     0.12200
H1130       H  0.12754075  0.70596135  0.33937496     0.12200
H1131       H  0.08416751  0.65668513  0.35336862     0.12200
H1132       H  0.16910373  0.57696391  0.33426711     0.12200
C1133       C  0.25482430  0.68420713  0.44989324    -0.14000
C1134       C  0.25378753  0.67305039  0.41304855     0.08200
C1135       C  0.24495887  0.63647771  0.40500750    -0.14000
C1136       C  0.23645733  0.61177698  0.43294341    -0.14000
C1137       C  0.23709252  0.62310730  0.46956569     0.08200
C1138       C  0.24755989  0.65909920  0.47807162    -0.14000
H1139       H  0.26109793  0.71234656  0.45670904     0.12200
H1140       H  0.24370483  0.62736307  0.37691055     0.12200
H1141       H  0.22995311  0.58364278  0.42601720     0.12200
H1142       H  0.24888160  0.66773999  0.00638023     0.12200
C1143       C  0.18499723  0.74983330  0.44944046    -0.14000
C1144       C  0.17351553  0.75346750  0.41280785     0.08200
C1145       C  0.13612804  0.74928314  0.40465482    -0.14000
C1146       C  0.11095326  0.74048602  0.43221287    -0.14000
C1147       C  0.12275461  0.73589517  0.46850742     0.08200
C1148       C  0.15969619  0.74190491  0.47722809    -0.14000
H1149       H  0.21366004  0.75269269  0.45634332     0.12200
H1150       H  0.12656407  0.75256278  0.37681210     0.12200
H1151       H  0.08216865  0.73779163  0.42532093     0.12200
H1152       H  0.16879372  0.74092838  0.00531487     0.12200
C1153       C  0.33660587  0.60588179  0.42484408    -0.14000
C1154       C  0.34714252  0.61415666  0.46092031     0.08200
C1155       C  0.34743210  0.65064028  0.47256519    -0.14000
C1156       C  0.33876926  0.67867166  0.44803814    -0.14000
C1157       C  0.33031357  0.67091427  0.41129308     0.08200
C1158       C  0.32917180  0.63418388  0.39991865    -0.14000
H1159       H  0.33476085  0.57764729  0.41589197     0.12200
H1160       H  0.35456182  0.65790411  0.00086547     0.12200
H1161       H  0.33931923  0.70662117  0.45748282     0.12200
H1162       H  0.32284863  0.62757516  0.37168750     0.12200
C1163       C  0.40554888  0.63618837  0.34048861    -0.14000
C1164       C  0.41351428  0.67283315  0.33166071     0.08200
C1165       C  0.45037929  0.68399706  0.33047193    -0.14000
C1166       C  0.47860669  0.65884341  0.33731703    -0.14000
C1167       C  0.47021600  0.62272791  0.34760344     0.08200
C1168       C  0.43355924  0.61141661  0.34857538    -0.14000
H1169       H  0.37747329  0.62701417  0.34195689     0.12200
H1170       H  0.45719819  0.71216802  0.32424526     0.12200
H1171       H  0.50690424  0.66765874  0.33520413     0.12200
H1172       H  0.42664875  0.58324269  0.35503688     0.12200
C1173       C  0.44977936  0.74990799  0.40006142    -0.14000
C1174       C  0.41315598  0.75378732  0.41140599     0.08200
C1175       C  0.40482582  0.74975987  0.44879952    -0.14000
C1176       C  0.43219116  0.74078954  0.47410574    -0.14000
C1177       C  0.46844480  0.73581932  0.46240680     0.08200
C1178       C  0.47736128  0.74173005  0.42547227    -0.14000
H1179       H  0.45681666  0.75268549  0.37140419     0.12200
H1180       H  0.37698176  0.75322530  0.45824979     0.12200
H1181       H  0.42450519  0.73979714  0.00326438     0.12200
H1182       H  0.00572073  0.74065285  0.41615528     0.12200
C1183       C  0.33908738  0.94738745  0.40460796    -0.14000
C1184       C  0.33006743  0.91078207  0.41258487     0.08200
C1185       C  0.32869255  0.89958420  0.44945018    -0.14000
C1186       C  0.33586897  0.92457713  0.47767573    -0.14000
C1187       C  0.34652589  0.96057991  0.46928877     0.08200
C1188       C  0.34739336  0.97202602  0.43263661    -0.14000
H1189       H  0.34069723  0.95657088  0.37650928     0.12200
H1190       H  0.32234515  0.87142813  0.45625287     0.12200
H1191       H  0.33379838  0.91569488  0.50598045     0.12200
H1192       H  0.35409228  0.00014957  0.42574642     0.12200
C1193       C  0.39931660  0.83442684  0.45020927    -0.14000
C1194       C  0.41045174  0.83011788  0.41355899     0.08200
C1195       C  0.44776409  0.83395867  0.40494855    -0.14000
C1196       C  0.47323677  0.84313618  0.43202924    -0.14000
C1197       C  0.46179504  0.84844663  0.46831179     0.08200
C1198       C  0.42491615  0.84277391  0.47754448    -0.14000
H1199       H  0.37070290  0.83187530  0.45745452     0.12200
H1200       H  0.45703966  0.83000714  0.37711014     0.12200
H1201       H  0.00183660  0.84556577  0.42495495     0.12200
H1202       H  0.41594523  0.84514930  0.50577950     0.12200
C1203       C  0.44770778  0.90428143  0.33880386    -0.14000
C1204       C  0.41100610  0.91221173  0.33034674     0.08200
C1205       C  0.39980722  0.94900053  0.32889265    -0.14000
C1206       C  0.42489920  0.97720700  0.33589144    -0.14000
C1207       C  0.46094928  0.96879886  0.34641171     0.08200
C1208       C  0.47239801  0.93223140  0.34708731    -0.14000
H1209       H  0.45705285  0.87629755  0.33944875     0.12200
H1210       H  0.37161112  0.95573995  0.32256303     0.12200
H1211       H  0.41607012  0.00547859  0.33381662     0.12200
H1212       H  0.00040967  0.92552701  0.35367738     0.12200
C1213       C  0.33626306  0.83656073  0.83654846     0.44800
H1214       H  0.31961079  0.81948704  0.81965481    -0.04200
C1215       C  0.37615695  0.87732382  0.87689164     0.44900
H1216       H  0.39373577  0.89515769  0.89456951    -0.04200
C1217       C  0.36206401  0.86227462  0.81309300    -0.17900
C1218       C  0.31258157  0.86239435  0.86207169    -0.17600
C1219       C  0.36200252  0.81344345  0.86265755    -0.18000
C1220       C  0.38277601  0.88390598  0.83648506    -0.18000
C1221       C  0.33579912  0.88370721  0.88339984    -0.17600
C1222       C  0.38287094  0.83708147  0.88394432    -0.17900
C1223       C  0.37710177  0.70748658  0.87794443     0.44800
H1224       H  0.39483273  0.69001231  0.89588509    -0.04200
C1225       C  0.33671628  0.74734042  0.83705268     0.44900
H1226       H  0.31980892  0.76403886  0.81994932    -0.04200
C1227       C  0.33671454  0.70038771  0.88410116    -0.17900
C1228       C  0.38346056  0.74783436  0.88440834    -0.17600
C1229       C  0.38427252  0.70087760  0.83770158    -0.18000
C1230       C  0.31328010  0.72148024  0.86275262    -0.18000
C1231       C  0.36217660  0.77101199  0.86295541    -0.17600
C1232       C  0.36286392  0.72160897  0.81394318    -0.17900
C1233       C  0.24736494  0.74689248  0.83649328     0.44800
H1234       H  0.26425888  0.76376246  0.81953450    -0.04200
C1235       C  0.20697735  0.70671096  0.87711995     0.44900
H1236       H  0.18926673  0.68915088  0.89501661    -0.04200
C1237       C  0.22181088  0.72073486  0.81327808    -0.17900
C1238       C  0.27078677  0.72147076  0.86269198    -0.17600
C1239       C  0.22139770  0.77039991  0.86192292    -0.18000
C1240       C  0.20071903  0.69940274  0.83681769    -0.18000
C1241       C  0.24730216  0.70049156  0.88413794    -0.17600
C1242       C  0.20025882  0.74706291  0.88333095    -0.17900
C1243       C  0.20619726  0.87661969  0.87557825     0.43400
H1244       H  0.18820589  0.89425229  0.89303904    -0.04200
C1245       C  0.24713920  0.83626814  0.83588774     0.44900
H1246       H  0.26423832  0.81931872  0.81932016    -0.04200
C1247       C  0.24644315  0.88386750  0.88227283    -0.17900
C1248       C  0.19976016  0.83629316  0.88240051    -0.17600
C1249       C  0.19964137  0.88272808  0.83515759    -0.18000
C1250       C  0.27014520  0.86243916  0.86159003    -0.18000
C1251       C  0.22132819  0.81285906  0.86165855    -0.17600
C1252       C  0.22133783  0.86170123  0.81205352    -0.17900
C1253       C  0.24777158  0.83560417  0.74670501     0.44800
H1254       H  0.26453594  0.81882903  0.76387406    -0.04200
C1255       C  0.20772649  0.87561354  0.70561007     0.44900
H1256       H  0.19013584  0.89312762  0.68756158    -0.04200
C1257       C  0.22190625  0.86168447  0.76961580    -0.17900
C1258       C  0.27137761  0.86108952  0.72073954    -0.17600
C1259       C  0.22213818  0.81201225  0.72101781    -0.18000
C1260       C  0.20108685  0.88294850  0.74583586    -0.18000
C1261       C  0.24807070  0.88191878  0.69897782    -0.17600
C1262       C  0.20117074  0.83526206  0.69935044    -0.17900
C1263       C  0.33709791  0.83572766  0.74723678     0.44800
H1264       H  0.32009724  0.81891035  0.76413978    -0.04200
C1265       C  0.37768791  0.87593019  0.70683796     0.44900
H1266       H  0.39544732  0.89357604  0.68906879    -0.04200
C1267       C  0.31382534  0.86135834  0.72125338    -0.17900
C1268       C  0.36276397  0.86166111  0.77062464    -0.17600
C1269       C  0.36302795  0.81228803  0.72165537    -0.18000
C1270       C  0.33734237  0.88263444  0.70023676    -0.18000
C1271       C  0.38430337  0.88259759  0.74713181    -0.17600
C1272       C  0.38447113  0.83564199  0.70050388    -0.17900
C1273       C  0.20760822  0.70579409  0.70711629     0.44800
H1274       H  0.18989288  0.68810046  0.68943064    -0.04200
C1275       C  0.24787996  0.74630272  0.74734056     0.44900
H1276       H  0.26470929  0.76330963  0.76412270    -0.04200
C1277       C  0.24798922  0.69879201  0.70092373    -0.17900
C1278       C  0.20104790  0.74608715  0.70028169    -0.17600
C1279       C  0.20055630  0.69960967  0.74744608    -0.18000
C1280       C  0.27135015  0.72032165  0.72188594    -0.18000
C1281       C  0.22225688  0.76958593  0.72129468    -0.17600
C1282       C  0.22185792  0.72072141  0.77083247    -0.17900
C1283       C  0.33707625  0.74656727  0.74770360     0.44800
H1284       H  0.32011611  0.76349376  0.76442995    -0.04200
C1285       C  0.37765874  0.70614348  0.70772819     0.44900
H1286       H  0.39550484  0.68846825  0.69016975    -0.04200
C1287       C  0.36271914  0.72095820  0.77142953    -0.17900
C1288       C  0.31381733  0.72065236  0.72185687    -0.17600
C1289       C  0.36300692  0.76988296  0.72192360    -0.18000
C1290       C  0.38385602  0.69948282  0.74821921    -0.18000
C1291       C  0.33740205  0.69956036  0.70071311    -0.17600
C1292       C  0.38421683  0.74643918  0.70083686    -0.17900
O1293       O  0.99603782  0.51713555  0.82275292    -0.72400
O1294       O  0.08775709  0.56539326  0.82311985    -0.72600
O1295       O  0.06601402  0.49547736  0.82238339    -0.72500
O1296       O  0.01768520  0.58707500  0.82351073    -0.72500
O1297       O  0.00304080  0.57588016  0.88006849    -0.72400
O1298       O  0.08088484  0.50516928  0.87911443    -0.72500
O1299       O  0.07746278  0.57942479  0.87993888    -0.72400
O1300       O  0.00658084  0.50167018  0.87923010    -0.72600
V1301       V  0.04187545  0.54126667  0.82351489     1.35200
V1302       V  0.04199096  0.54053693  0.87961707     1.35200
C1303       C  0.48819020  0.99768231  0.85020382     0.76800
C1304       C  0.09593614  0.58423361  0.85075997     0.76900
C1305       C  0.08525532  0.98730139  0.84968501     0.76800
C1306       C  0.49834759  0.59510429  0.85156056     0.76700
O1307       O  0.00315110  0.50644451  0.70367461    -0.72400
O1308       O  0.08115038  0.57706336  0.70368373    -0.72600
O1309       O  0.07755330  0.50280606  0.70328159    -0.72500
O1310       O  0.00680140  0.58070038  0.70412419    -0.72500
O1311       O  0.99661116  0.56536943  0.76068880    -0.72400
O1312       O  0.08834077  0.51719396  0.75992808    -0.72500
O1313       O  0.06658251  0.58709216  0.76043658    -0.72400
O1314       O  0.01827406  0.49546966  0.76014315    -0.72600
V1315       V  0.04216479  0.54174643  0.70364268     1.35200
V1316       V  0.04245327  0.54128358  0.75972985     1.35200
C1317       C  0.49892166  0.98762330  0.73286400     0.76800
C1318       C  0.08573816  0.59530734  0.73296785     0.76900
C1319       C  0.09649110  0.99825304  0.73236693     0.76800
C1320       C  0.48842550  0.58498757  0.73384045     0.76700
O1321       O  0.32382173  0.51702989  0.58772813    -0.72400
O1322       O  0.32378467  0.56602426  0.49639281    -0.72600
O1323       O  0.32357770  0.49600058  0.51752291    -0.72500
O1324       O  0.32401883  0.58713479  0.56656377    -0.72500
O1325       O  0.38061094  0.57636789  0.58119150    -0.72400
O1326       O  0.38020120  0.50638832  0.50265385    -0.72500
O1327       O  0.38048241  0.58056928  0.50677977    -0.72400
O1328       O  0.38036993  0.50217270  0.57700288    -0.72600
V1329       V  0.32437336  0.54154932  0.54205479     1.35200
V1330       V  0.38045501  0.54137954  0.54191069     1.35200
C1331       C  0.35124992  0.99731672  0.59581852     0.76800
C1332       C  0.35187411  0.58559328  0.98840715     0.76900
C1333       C  0.35057214  0.98833658  0.99794420     0.76800
C1334       C  0.35148588  0.59487869  0.58588229     0.76700
O1335       O  0.08724687  0.82361301  0.56734287    -0.72400
O1336       O  0.99764321  0.82421629  0.51582467    -0.72600
O1337       O  0.06824221  0.82399509  0.49676326    -0.72500
O1338       O  0.01669965  0.82379695  0.58641997    -0.72500
O1339       O  0.00348976  0.88095844  0.57702967    -0.72400
O1340       O  0.08178558  0.88103202  0.50646849    -0.72500
O1341       O  0.00741013  0.88134193  0.50260100    -0.72400
O1342       O  0.07789866  0.88070028  0.58085682    -0.72600
V1343       V  0.04245443  0.82463414  0.54158305     1.35200
V1344       V  0.04265110  0.88089576  0.54173912     1.35200
C1345       C  0.09566144  0.85121782  0.58606516     0.76800
C1346       C  0.48967999  0.85247867  0.99661559     0.76900
C1347       C  0.08702200  0.85201807  0.98841275     0.76800
C1348       C  0.49781761  0.85200704  0.59467991     0.76700
O1349       O  0.20451026  0.50586310  0.58051900    -0.72400
O1350       O  0.20398655  0.57703102  0.50300079    -0.72600
O1351       O  0.20414112  0.50274924  0.50613587    -0.72500
O1352       O  0.20438942  0.58012091  0.57738359    -0.72500
O1353       O  0.26113583  0.56554015  0.58733433    -0.72400
O1354       O  0.26075601  0.51748235  0.49551918    -0.72500
O1355       O  0.26074958  0.58735772  0.51735435    -0.72400
O1356       O  0.26112528  0.49568260  0.56553058    -0.72600
V1357       V  0.20424189  0.54143760  0.54175008     1.35200
V1358       V  0.26035044  0.54151999  0.54143414     1.35200
C1359       C  0.23364297  0.98716507  0.58499196     0.76800
C1360       C  0.23321983  0.59527394  0.99840991     0.76900
C1361       C  0.23275262  0.99813146  0.98796507     0.76800
C1362       C  0.23368653  0.58458857  0.59570545     0.76700
O1363       O  0.08718905  0.75947069  0.51639071    -0.72400
O1364       O  0.99806085  0.75927203  0.56885485    -0.72600
O1365       O  0.06876451  0.75900467  0.58720369    -0.72500
O1366       O  0.01644856  0.75972356  0.49806839    -0.72500
O1367       O  0.00319544  0.70251759  0.50724768    -0.72400
O1368       O  0.08161251  0.70181278  0.57746997    -0.72500
O1369       O  0.00731573  0.70196923  0.58161884    -0.72400
O1370       O  0.07755875  0.70238422  0.50306906    -0.72600
V1371       V  0.04261453  0.75861784  0.54262852     1.35200
V1372       V  0.04243282  0.70231774  0.54234576     1.35200
C1373       C  0.09534571  0.73200641  0.99740496     0.76800
C1374       C  0.49009982  0.73112796  0.58761084     0.76900
C1375       C  0.08718251  0.73109466  0.59538270     0.76800
C1376       C  0.49693719  0.73254831  0.99037697     0.76700
C1377       C  0.34024578  0.63539828  0.67973886    -0.14000
C1378       C  0.33123145  0.67200876  0.67182157     0.08200
C1379       C  0.32991037  0.68326078  0.63496570    -0.14000
C1380       C  0.33692198  0.65827406  0.60668798    -0.14000
C1381       C  0.34748303  0.62223400  0.61499870     0.08200
C1382       C  0.34847581  0.61078237  0.65165402    -0.14000
H1383       H  0.34194196  0.62619323  0.70783253     0.12200
H1384       H  0.32352289  0.71140719  0.62819710     0.12200
H1385       H  0.33475484  0.66717939  0.57839812     0.12200
H1386       H  0.35514593  0.58264811  0.65850391     0.12200
C1387       C  0.40007359  0.74859862  0.63488797    -0.14000
C1388       C  0.41127052  0.75289073  0.67151223     0.08200
C1389       C  0.44863881  0.74931056  0.68000740    -0.14000
C1390       C  0.47410092  0.74042809  0.65278741    -0.14000
C1391       C  0.46255427  0.73497158  0.61654633     0.08200
C1392       C  0.42561312  0.74037363  0.60746866    -0.14000
H1393       H  0.37144238  0.75106827  0.62772552     0.12200
H1394       H  0.45796099  0.75314364  0.70785408     0.12200
H1395       H  0.00272166  0.73780650  0.65958780     0.12200
H1396       H  0.41654739  0.73791074  0.57927410     0.12200
C1397       C  0.40002766  0.63382606  0.75656474    -0.14000
C1398       C  0.41127432  0.67061992  0.75504621     0.08200
C1399       C  0.44795903  0.67846793  0.74635611    -0.14000
C1400       C  0.47250773  0.65048536  0.73776632    -0.14000
C1401       C  0.46100108  0.61392678  0.73845390     0.08200
C1402       C  0.42502189  0.60557327  0.74933485    -0.14000
H1403       H  0.37181318  0.62712131  0.76290945     0.12200
H1404       H  0.45732603  0.70645490  0.74548472     0.12200
H1405       H  0.50067583  0.65733050  0.73116167     0.12200
H1406       H  0.41613419  0.57731316  0.75140884     0.12200
C1407       C  0.13507653  0.74934922  0.68489043    -0.14000
C1408       C  0.17170583  0.75249174  0.67335421     0.08200
C1409       C  0.17992986  0.74779460  0.63606252    -0.14000
C1410       C  0.15244805  0.73878312  0.61101014    -0.14000
C1411       C  0.11613756  0.73476273  0.62282833     0.08200
C1412       C  0.10731729  0.74140322  0.65964436    -0.14000
H1413       H  0.12815344  0.75268079  0.71350909     0.12200
H1414       H  0.20776059  0.75089042  0.62648424     0.12200
H1415       H  0.15937819  0.73568501  0.58226634     0.12200
H1416       H  0.07909601  0.74001572  0.66884850     0.12200
C1417       C  0.25522485  0.63291642  0.68474458    -0.14000
C1418       C  0.25453674  0.66977863  0.67354197     0.08200
C1419       C  0.24660985  0.67781143  0.63670184    -0.14000
C1420       C  0.23812911  0.65000108  0.61190610    -0.14000
C1421       C  0.23794198  0.61339530  0.62335901     0.08200
C1422       C  0.24788019  0.60482181  0.65958377    -0.14000
H1423       H  0.26113535  0.62602729  0.71301589     0.12200
H1424       H  0.24660595  0.70581126  0.62730445     0.12200
H1425       H  0.23233579  0.65701188  0.58358303     0.12200
H1426       H  0.24933386  0.57651231  0.66847078     0.12200
C1427       C  0.17936615  0.63561876  0.74540321    -0.14000
C1428       C  0.17150419  0.67231634  0.75387649     0.08200
C1429       C  0.13471706  0.68371379  0.75463889    -0.14000
C1430       C  0.10643797  0.65879398  0.74730008    -0.14000
C1431       C  0.11476901  0.62266515  0.73719842     0.08200
C1432       C  0.15132086  0.61104172  0.73702139    -0.14000
H1433       H  0.20741545  0.62630562  0.74429720     0.12200
H1434       H  0.12802492  0.71193257  0.76065625     0.12200
H1435       H  0.07817142  0.66779080  0.74888639     0.12200
H1436       H  0.15811563  0.58281645  0.73079706     0.12200
C1437       C  0.45048794  0.83374170  0.68471453    -0.14000
C1438       C  0.41388684  0.82929863  0.67346811     0.08200
C1439       C  0.40547091  0.83318028  0.63607932    -0.14000
C1440       C  0.43267391  0.84250665  0.61069780    -0.14000
C1441       C  0.46889213  0.84800294  0.62228446     0.08200
C1442       C  0.47792425  0.84229662  0.65922653    -0.14000
H1443       H  0.45762135  0.83111533  0.71335672     0.12200
H1444       H  0.37766310  0.82929341  0.62668651     0.12200
H1445       H  0.42558391  0.84486176  0.58191493     0.12200
H1446       H  0.00639085  0.84382754  0.66848156     0.12200
C1447       C  0.33929603  0.90376071  0.63613805    -0.14000
C1448       C  0.33086668  0.91155736  0.67287147     0.08200
C1449       C  0.32956755  0.94827196  0.68423281    -0.14000
C1450       C  0.33675560  0.97657302  0.65927116    -0.14000
C1451       C  0.34716444  0.96830327  0.62317247     0.08200
C1452       C  0.34765106  0.93181649  0.61154011    -0.14000
H1453       H  0.33994646  0.87580155  0.62672777     0.12200
H1454       H  0.32318011  0.95486905  0.71244987     0.12200
H1455       H  0.33480460  0.00480589  0.66820234     0.12200
H1456       H  0.35388458  0.92510103  0.58326252     0.12200
C1457       C  0.43326799  0.97150440  0.73598156    -0.14000
C1458       C  0.46990164  0.96015515  0.73700033     0.08200
C1459       C  0.47824695  0.92413979  0.74763382    -0.14000
C1460       C  0.44999588  0.89907208  0.75470648    -0.14000
C1461       C  0.41315051  0.91022166  0.75334232     0.08200
C1462       C  0.40522769  0.94681522  0.74427242    -0.14000
H1463       H  0.42640106  0.99962992  0.72928809     0.12200
H1464       H  0.50653137  0.91531798  0.74980068     0.12200
H1465       H  0.45677033  0.87093853  0.76113687     0.12200
H1466       H  0.37716840  0.95599314  0.74273845     0.12200
C1467       C  0.13689303  0.83303524  0.67848836    -0.14000
C1468       C  0.17418254  0.82868931  0.67005377     0.08200
C1469       C  0.18547861  0.83240882  0.63337008    -0.14000
C1470       C  0.16005338  0.84071917  0.60583077    -0.14000
C1471       C  0.12323583  0.84698700  0.61489267     0.08200
C1472       C  0.11162454  0.84223445  0.65121129    -0.14000
H1473       H  0.12749801  0.82953914  0.70636448     0.12200
H1474       H  0.21409608  0.82950238  0.62626988     0.12200
H1475       H  0.16913251  0.84271726  0.57759212     0.12200
H1476       H  0.08290433  0.84504773  0.65832499     0.12200
C1477       C  0.24580258  0.94603654  0.67828730    -0.14000
C1478       C  0.25452237  0.90945964  0.67016416     0.08200
C1479       C  0.25553752  0.89839598  0.63328671    -0.14000
C1480       C  0.24835175  0.92358919  0.60516863    -0.14000
C1481       C  0.23790710  0.95955629  0.61377187     0.08200
C1482       C  0.23733525  0.97081180  0.65041628    -0.14000
H1483       H  0.24463264  0.95510090  0.70639789     0.12200
H1484       H  0.26163211  0.87023515  0.62640554     0.12200
H1485       H  0.25020037  0.91490004  0.57682159     0.12200
H1486       H  0.23022063  0.49927065  0.65729197     0.12200
C1487       C  0.13704071  0.90457320  0.74341474    -0.14000
C1488       C  0.17380954  0.91220773  0.75187827     0.08200
C1489       C  0.18520652  0.94896912  0.75327233    -0.14000
C1490       C  0.16021635  0.97737656  0.74641914    -0.14000
C1491       C  0.12402808  0.96923946  0.73609695     0.08200
C1492       C  0.11246028  0.93270771  0.73529242    -0.14000
H1493       H  0.12749374  0.87666241  0.74276181     0.12200
H1494       H  0.21340827  0.95555407  0.75971448     0.12200
H1495       H  0.16919233  0.00559218  0.74860948     0.12200
H1496       H  0.08417215  0.92599452  0.72911305     0.12200
C1497       C  0.15206629  0.84344262  0.97214147    -0.14000
C1498       C  0.11571673  0.84809759  0.96068895     0.08200
C1499       C  0.10648340  0.84181269  0.92390862    -0.14000
C1500       C  0.13388563  0.83357378  0.89835526    -0.14000
C1501       C  0.17057663  0.82986019  0.90951902     0.08200
C1502       C  0.17918942  0.83422590  0.94676295    -0.14000
H1503       H  0.15930109  0.84623504  0.00083996     0.12200
H1504       H  0.07821243  0.84371440  0.91496620     0.12200
H1505       H  0.12666322  0.83065106  0.86976261     0.12200
H1506       H  0.20706262  0.83064246  0.95605018     0.12200
C1507       C  0.13393485  0.89884904  0.82742456    -0.14000
C1508       C  0.17076873  0.91010812  0.82840370     0.08200
C1509       C  0.17873758  0.94677176  0.83694486    -0.14000
C1510       C  0.15077590  0.97140550  0.84536230    -0.14000
C1511       C  0.11418310  0.95990765  0.84504326     0.08200
C1512       C  0.10572981  0.92386776  0.83468531    -0.14000
H1513       H  0.12715729  0.87063062  0.82144517     0.12200
H1514       H  0.20681299  0.95599561  0.83811779     0.12200
H1515       H  0.15766561  0.49951752  0.85252851     0.12200
H1516       H  0.07743223  0.91496826  0.83301116     0.12200
C1517       C  0.25341291  0.94980917  0.89866585    -0.14000
C1518       C  0.25256497  0.91291966  0.90977258     0.08200
C1519       C  0.24455853  0.90484898  0.94659415    -0.14000
C1520       C  0.23637833  0.93265883  0.97151146    -0.14000
C1521       C  0.23652237  0.96931442  0.96019710     0.08200
C1522       C  0.24635255  0.97788854  0.92393241    -0.14000
H1523       H  0.25948205  0.95675381  0.87044460     0.12200
H1524       H  0.24445277  0.87684787  0.95595126     0.12200
H1525       H  0.22996924  0.92590475  0.49982930     0.12200
H1526       H  0.24865916  0.50598306  0.91514727     0.12200
C1527       C  0.18470540  0.63337625  0.82944272    -0.14000
C1528       C  0.17338178  0.67016835  0.83054254     0.08200
C1529       C  0.13657396  0.67786017  0.83884152    -0.14000
C1530       C  0.11195671  0.64979026  0.84724140    -0.14000
C1531       C  0.12349866  0.61324411  0.84682873     0.08200
C1532       C  0.15967440  0.60502853  0.83653407    -0.14000
H1533       H  0.21293407  0.62672284  0.82320710     0.12200
H1534       H  0.12706801  0.70579050  0.83928178     0.12200
H1535       H  0.08366805  0.65655949  0.85334894     0.12200
H1536       H  0.16863170  0.57679340  0.83460471     0.12200
C1537       C  0.25442697  0.68412919  0.94990279    -0.14000
C1538       C  0.25363617  0.67299588  0.91304365     0.08200
C1539       C  0.24513882  0.63634176  0.90496534    -0.14000
C1540       C  0.23682739  0.61152469  0.93288481    -0.14000
C1541       C  0.23715782  0.62286164  0.96951932     0.08200
C1542       C  0.24721198  0.65896305  0.97804999    -0.14000
H1543       H  0.26038645  0.71232484  0.95675631     0.12200
H1544       H  0.24405528  0.62722899  0.87685745     0.12200
H1545       H  0.23062458  0.58332831  0.92593522     0.12200
H1546       H  0.24949340  0.66783901  0.50639717     0.12200
C1547       C  0.18482390  0.75040426  0.94930824    -0.14000
C1548       C  0.17332097  0.75364692  0.91265997     0.08200
C1549       C  0.13598829  0.74914975  0.90447510    -0.14000
C1550       C  0.11087807  0.74026790  0.93202519    -0.14000
C1551       C  0.12269848  0.73607358  0.96834270     0.08200
C1552       C  0.15955446  0.74251353  0.97710601    -0.14000
H1553       H  0.21347089  0.75349546  0.95620407     0.12200
H1554       H  0.12643312  0.75225308  0.87661556     0.12200
H1555       H  0.08212501  0.73727217  0.92512280     0.12200
H1556       H  0.16897271  0.74001042  0.50540536     0.12200
C1557       C  0.33702712  0.60638360  0.92501744    -0.14000
C1558       C  0.34785846  0.61465956  0.96100593     0.08200
C1559       C  0.34809514  0.65115420  0.97265010    -0.14000
C1560       C  0.33901605  0.67916202  0.94821061    -0.14000
C1561       C  0.33026902  0.67138893  0.91152427     0.08200
C1562       C  0.32919231  0.63465274  0.90018268    -0.14000
H1563       H  0.33514589  0.57814647  0.91608069     0.12200
H1564       H  0.35371321  0.65737430  0.50082707     0.12200
H1565       H  0.33956372  0.70711543  0.95764869     0.12200
H1566       H  0.32255698  0.62800689  0.87203397     0.12200
C1567       C  0.40494323  0.63663105  0.84082884    -0.14000
C1568       C  0.41309090  0.67317530  0.83174236     0.08200
C1569       C  0.45000489  0.68413249  0.83041790    -0.14000
C1570       C  0.47808950  0.65885580  0.83739685    -0.14000
C1571       C  0.46951999  0.62284782  0.84795639     0.08200
C1572       C  0.43280785  0.61175953  0.84908873    -0.14000
H1573       H  0.37683212  0.62759810  0.84227302     0.12200
H1574       H  0.45697145  0.71224325  0.82405690     0.12200
H1575       H  0.50643263  0.66748720  0.83514219     0.12200
H1576       H  0.42574360  0.58365835  0.85569859     0.12200
C1577       C  0.44934981  0.75031384  0.90036646    -0.14000
C1578       C  0.41270960  0.75450180  0.91154950     0.08200
C1579       C  0.40428555  0.75088685  0.94898273    -0.14000
C1580       C  0.43158883  0.74207377  0.97447244    -0.14000
C1581       C  0.46786685  0.73679811  0.96291568     0.08200
C1582       C  0.47684503  0.74230676  0.92593302    -0.14000
H1583       H  0.45646837  0.75265896  0.87168812     0.12200
H1584       H  0.37641799  0.75452385  0.95832262     0.12200
H1585       H  0.42518395  0.73821728  0.50289310     0.12200
H1586       H  0.00545275  0.73958755  0.91610393     0.12200
C1587       C  0.33817649  0.94795597  0.90412508    -0.14000
C1588       C  0.32921609  0.91133369  0.91211080     0.08200
C1589       C  0.32793636  0.90014765  0.94898070    -0.14000
C1590       C  0.33522068  0.92511952  0.97719511    -0.14000
C1591       C  0.34597279  0.96109010  0.96880508     0.08200
C1592       C  0.34669172  0.97255911  0.93214622    -0.14000
H1593       H  0.33970211  0.95714551  0.87602116     0.12200
H1594       H  0.32157005  0.87199906  0.95579765     0.12200
H1595       H  0.33322872  0.91621875  0.00549919     0.12200
H1596       H  0.35344541  0.00066691  0.92524791     0.12200
C1597       C  0.39915536  0.83565793  0.94987795    -0.14000
C1598       C  0.41009052  0.83093491  0.91321760     0.08200
C1599       C  0.44743992  0.83423260  0.90448199    -0.14000
C1600       C  0.47316776  0.84299118  0.93151375    -0.14000
C1601       C  0.46191488  0.84872548  0.96781414     0.08200
C1602       C  0.42494701  0.84379746  0.97710504    -0.14000
H1603       H  0.37054574  0.83352502  0.95723983     0.12200
H1604       H  0.45657261  0.83010208  0.87661580     0.12200
H1605       H  0.00197633  0.84506504  0.92467499     0.12200
H1606       H  0.41605698  0.84654146  0.00533018     0.12200
C1607       C  0.44698030  0.90451605  0.83814118    -0.14000
C1608       C  0.41029837  0.91265350  0.82982931     0.08200
C1609       C  0.39925399  0.94950071  0.82856198    -0.14000
C1610       C  0.42449069  0.97756068  0.83564553    -0.14000
C1611       C  0.46055574  0.96893293  0.84594478     0.08200
C1612       C  0.47183927  0.93231479  0.84640159    -0.14000
H1613       H  0.45616350  0.87646976  0.83874120     0.12200
H1614       H  0.37106794  0.95639496  0.82235895     0.12200
H1615       H  0.41578044  0.00588352  0.83376486     0.12200
H1616       H  0.00015053  0.92546891  0.85245440     0.12200
C1617       C  0.83685178  0.33628553  0.33688146     0.44800
H1618       H  0.82011498  0.31932018  0.31995898    -0.04200
C1619       C  0.87693918  0.37675780  0.37732932     0.44900
H1620       H  0.89459924  0.39445389  0.39506860    -0.04200
C1621       C  0.86273368  0.36199288  0.31350069    -0.17900
C1622       C  0.81328846  0.36212788  0.36249050    -0.17600
C1623       C  0.86250357  0.31299396  0.36290635    -0.18000
C1624       C  0.88362962  0.38340915  0.33694877    -0.18000
C1625       C  0.83661522  0.38331008  0.38385782    -0.17600
C1626       C  0.88340135  0.33647605  0.38427434    -0.17900
C1627       C  0.87734496  0.20698499  0.37800549     0.44800
H1628       H  0.89501277  0.18942461  0.39592813    -0.04200
C1629       C  0.83707222  0.24705119  0.33719982     0.44900
H1630       H  0.82021978  0.26384569  0.32013746    -0.04200
C1631       C  0.83692973  0.20003358  0.38414156    -0.17900
C1632       C  0.88388415  0.24730314  0.38444524    -0.17600
C1633       C  0.88449573  0.20041249  0.33778428    -0.18000
C1634       C  0.81356170  0.22125385  0.36285497    -0.18000
C1635       C  0.86260686  0.27058154  0.36310185    -0.17600
C1636       C  0.86315303  0.22127359  0.31408114    -0.17900
C1637       C  0.74771354  0.24689856  0.33660814     0.44800
H1638       H  0.76465665  0.26377268  0.31969348    -0.04200
C1639       C  0.70721567  0.20669049  0.37709171     0.44900
H1640       H  0.68945894  0.18910034  0.39491124    -0.04200
C1641       C  0.72219446  0.22081142  0.31325993    -0.17900
C1642       C  0.77106964  0.22139366  0.36278650    -0.17600
C1643       C  0.72172746  0.27035996  0.36211659    -0.18000
C1644       C  0.70104709  0.19948059  0.33674185    -0.18000
C1645       C  0.74752285  0.20043545  0.38417265    -0.17600
C1646       C  0.70050657  0.24700427  0.38344726    -0.17900
C1647       C  0.70695006  0.37652864  0.37626008     0.43400
H1648       H  0.68904694  0.39415257  0.39381858    -0.04200
C1649       C  0.74769705  0.33621040  0.33634192     0.44900
H1650       H  0.76472009  0.31929146  0.31966493    -0.04200
C1651       C  0.74723761  0.38363658  0.38286158    -0.17900
C1652       C  0.70036620  0.33621577  0.38296777    -0.17600
C1653       C  0.70032688  0.38279771  0.33586890    -0.18000
C1654       C  0.77084150  0.36224883  0.36206207    -0.18000
C1655       C  0.72184110  0.31280210  0.36208952    -0.17600
C1656       C  0.72189570  0.36175460  0.31263227    -0.17900
C1657       C  0.74815909  0.33577839  0.24709195     0.44800
H1658       H  0.76492701  0.31892514  0.26418505    -0.04200
C1659       C  0.70809704  0.37598630  0.20621621     0.44900
H1660       H  0.69051289  0.39360875  0.18827306    -0.04200
C1661       C  0.72235235  0.36179690  0.27016706    -0.17900
C1662       C  0.77179642  0.36132616  0.22120252    -0.17600
C1663       C  0.72245770  0.31231517  0.22130151    -0.18000
C1664       C  0.70147757  0.38310849  0.24649060    -0.18000
C1665       C  0.74847660  0.38230398  0.19958404    -0.17600
C1666       C  0.70143148  0.33567700  0.19974830    -0.17900
C1667       C  0.83754356  0.33574481  0.24759941     0.44800
H1668       H  0.82051159  0.31889678  0.26445529    -0.04200
C1669       C  0.87819332  0.37594745  0.20726294     0.44900
H1670       H  0.89599678  0.39357308  0.18952030    -0.04200
C1671       C  0.81428847  0.36150170  0.22165521    -0.17900
C1672       C  0.86329125  0.36157019  0.27103060    -0.17600
C1673       C  0.86345745  0.31228831  0.22200900    -0.18000
C1674       C  0.83785947  0.38276932  0.20063529    -0.18000
C1675       C  0.88480945  0.38255525  0.24756623    -0.17600
C1676       C  0.88492744  0.33564959  0.20088881    -0.17900
C1677       C  0.70809177  0.20613470  0.20694220     0.44800
H1678       H  0.69038363  0.18850446  0.18918964    -0.04200
C1679       C  0.74832047  0.24649166  0.24734591     0.44900
H1680       H  0.76512980  0.26342901  0.26422179    -0.04200
C1681       C  0.74846422  0.19918605  0.20069193    -0.17900
C1682       C  0.70150779  0.24644585  0.20022559    -0.17600
C1683       C  0.70106636  0.19975315  0.24727562    -0.18000
C1684       C  0.77180944  0.22054856  0.22181943    -0.18000
C1685       C  0.72268092  0.26987617  0.22135488    -0.17600
C1686       C  0.72229920  0.22084844  0.27076727    -0.17900
C1687       C  0.83748651  0.24648838  0.24792108     0.44800
H1688       H  0.82051704  0.26341288  0.26464311    -0.04200
C1689       C  0.87812598  0.20610944  0.20796253     0.44900
H1690       H  0.89601888  0.18848592  0.19039411    -0.04200
C1691       C  0.86305414  0.22075236  0.27161223    -0.17900
C1692       C  0.81427279  0.22069547  0.22191325    -0.17600
C1693       C  0.86348074  0.26986001  0.22229753    -0.18000
C1694       C  0.88420686  0.19930619  0.24840963    -0.18000
C1695       C  0.83789054  0.19956980  0.20079041    -0.17600
C1696       C  0.88476793  0.24642933  0.20129673    -0.17900
O1697       O  0.49631299  0.01721494  0.32329070    -0.72400
O1698       O  0.58808148  0.06539014  0.32315252    -0.72600
O1699       O  0.56626209  0.99546379  0.32269132    -0.72500
O1700       O  0.51805315  0.08712766  0.32380918    -0.72500
O1701       O  0.50364674  0.07609748  0.38046407    -0.72400
O1702       O  0.58136843  0.00528966  0.37933652    -0.72500
O1703       O  0.57804279  0.07955520  0.37998411    -0.72400
O1704       O  0.50709541  0.00183929  0.37974302    -0.72600
V1705       V  0.54218273  0.04129800  0.32380771     1.35200
V1706       V  0.54253445  0.04069850  0.37991031     1.35200
C1707       C  0.98863901  0.49770034  0.35059116     0.76800
C1708       C  0.59638237  0.08429852  0.35070934     0.76900
C1709       C  0.58567839  0.48725811  0.35022294     0.76800
C1710       C  0.99892922  0.09497879  0.35142065     0.76700
O1711       O  0.50331201  0.00658831  0.20411645    -0.72400
O1712       O  0.58157440  0.07693342  0.20379462    -0.72600
O1713       O  0.57769743  0.00266142  0.20377050    -0.72500
O1714       O  0.50724212  0.08082507  0.20419395    -0.72500
O1715       O  0.49699792  0.06579244  0.26083663    -0.72400
O1716       O  0.58856359  0.01735198  0.26031847    -0.72500
O1717       O  0.56699208  0.08733717  0.26047607    -0.72400
O1718       O  0.51843143  0.99585489  0.26062971    -0.72600
V1719       V  0.54245892  0.04174867  0.20391585     1.35200
V1720       V  0.54274739  0.04158152  0.25999944     1.35200
C1721       C  0.99897523  0.48804425  0.23327388     0.76800
C1722       C  0.58618829  0.09534864  0.23297255     0.76900
C1723       C  0.59661036  0.49810223  0.23305432     0.76800
C1724       C  0.98902606  0.08521603  0.23357423     0.76700
O1725       O  0.82400163  0.01682560  0.08735731    -0.72400
O1726       O  0.82413694  0.06657446  0.99645616    -0.72600
O1727       O  0.82352031  0.99640043  0.01701902    -0.72500
O1728       O  0.82460211  0.08709852  0.06678952    -0.72500
O1729       O  0.88123605  0.07605653  0.08107838    -0.72400
O1730       O  0.88023463  0.00635861  0.00223284    -0.72500
O1731       O  0.88101760  0.08053987  0.00664149    -0.72400
O1732       O  0.88049633  0.00181014  0.07658679    -0.72600
V1733       V  0.82466087  0.04172572  0.04190287     1.35200
V1734       V  0.88076668  0.04119504  0.04164488     1.35200
C1735       C  0.85152748  0.49727252  0.09554704     0.76800
C1736       C  0.85144873  0.08516997  0.48838478     0.76900
C1737       C  0.85088994  0.48811864  0.49840429     0.76800
C1738       C  0.85220881  0.09468436  0.08597880     0.76700
O1739       O  0.58689523  0.32398251  0.06786915    -0.72400
O1740       O  0.49800569  0.32456604  0.01505846    -0.72600
O1741       O  0.56877037  0.32435106  0.99700136    -0.72500
O1742       O  0.51610042  0.32417956  0.08590239    -0.72500
O1743       O  0.50353166  0.38155360  0.07691451    -0.72400
O1744       O  0.58171431  0.38160412  0.00627318    -0.72500
O1745       O  0.50735687  0.38188809  0.00243708    -0.72400
O1746       O  0.57797036  0.38127872  0.08072689    -0.72600
V1747       V  0.54244728  0.32505925  0.04145746     1.35200
V1748       V  0.54264808  0.38140232  0.04159283     1.35200
C1749       C  0.59545940  0.35169992  0.08636735     0.76800
C1750       C  0.98962278  0.35202037  0.49693512     0.76900
C1751       C  0.58696149  0.35171952  0.48854277     0.76800
C1752       C  0.99764874  0.35200036  0.09435870     0.76700
O1753       O  0.70440251  0.00603817  0.08090663    -0.72400
O1754       O  0.70394586  0.07699819  0.00315388    -0.72600
O1755       O  0.70383405  0.00271404  0.00646351    -0.72500
O1756       O  0.70456939  0.08030363  0.07752236    -0.72500
O1757       O  0.76132694  0.06563684  0.08732859    -0.72400
O1758       O  0.76048604  0.01718867  0.99573451    -0.72500
O1759       O  0.76080715  0.08711722  0.01726132    -0.72400
O1760       O  0.76097110  0.99565932  0.06587894    -0.72600
V1761       V  0.70418132  0.04150394  0.04200976     1.35200
V1762       V  0.76029939  0.04139289  0.04155508     1.35200
C1763       C  0.73388166  0.48752288  0.08547161     0.76800
C1764       C  0.73320011  0.09536420  0.49846964     0.76900
C1765       C  0.73338597  0.49838832  0.48773609     0.76800
C1766       C  0.73395135  0.08479587  0.09570882     0.76700
O1767       O  0.58700831  0.25938353  0.01592944    -0.72400
O1768       O  0.49861824  0.25903363  0.06940240    -0.72600
O1769       O  0.56953326  0.25885027  0.08686059    -0.72500
O1770       O  0.51604110  0.25962030  0.99843740    -0.72500
O1771       O  0.50305756  0.20234506  0.00750191    -0.72400
O1772       O  0.58220741  0.20162635  0.07711362    -0.72500
O1773       O  0.50789830  0.20166914  0.08188908    -0.72400
O1774       O  0.57743105  0.20224191  0.00276488    -0.72600
V1775       V  0.54279305  0.25845230  0.04265415     1.35200
V1776       V  0.54265470  0.20212990  0.04231178     1.35200
C1777       C  0.59549256  0.23200545  0.49779646     0.76800
C1778       C  0.99065236  0.23131416  0.08831771     0.76900
C1779       C  0.58802965  0.23095415  0.09489558     0.76800
C1780       C  0.99781249  0.23149924  0.48957791     0.76700
C1781       C  0.84097065  0.13535339  0.17981396    -0.14000
C1782       C  0.83185460  0.17194982  0.17186904     0.08200
C1783       C  0.83061164  0.18314022  0.13499211    -0.14000
C1784       C  0.83785910  0.15814971  0.10675908    -0.14000
C1785       C  0.84845141  0.12211384  0.11510215     0.08200
C1786       C  0.84935127  0.11071231  0.15177538    -0.14000
H1787       H  0.84248719  0.12614159  0.20790338     0.12200
H1788       H  0.82415746  0.21125774  0.12816577     0.12200
H1789       H  0.83573261  0.16702518  0.07845755     0.12200
H1790       H  0.85597803  0.08257896  0.15867350     0.12200
C1791       C  0.90073876  0.24856891  0.13553183    -0.14000
C1792       C  0.91190363  0.25291475  0.17213870     0.08200
C1793       C  0.94925152  0.24932105  0.18073111    -0.14000
C1794       C  0.97473888  0.24036713  0.15355947    -0.14000
C1795       C  0.96320367  0.23496499  0.11730449     0.08200
C1796       C  0.92629327  0.24037543  0.10817199    -0.14000
H1797       H  0.87211136  0.25101390  0.12833731     0.12200
H1798       H  0.95852278  0.25318118  0.20859266     0.12200
H1799       H  0.50338939  0.23788578  0.16007349     0.12200
H1800       H  0.91726276  0.23794662  0.07996318     0.12200
C1801       C  0.90049038  0.13365184  0.25624349    -0.14000
C1802       C  0.91166673  0.17047443  0.25516702     0.08200
C1803       C  0.94837119  0.17849025  0.24670640    -0.14000
C1804       C  0.97300800  0.15065407  0.23788919    -0.14000
C1805       C  0.96152494  0.11408362  0.23799828     0.08200
C1806       C  0.92551519  0.10554569  0.24861974    -0.14000
H1807       H  0.87230394  0.12681819  0.26256014     0.12200
H1808       H  0.95769199  0.20650344  0.24624514     0.12200
H1809       H  0.00121719  0.15761040  0.23158443     0.12200
H1810       H  0.91667374  0.07724790  0.25035027     0.12200
C1811       C  0.63559659  0.24844372  0.18469300    -0.14000
C1812       C  0.67213764  0.25290685  0.17330156     0.08200
C1813       C  0.68050223  0.24930501  0.13590223    -0.14000
C1814       C  0.65322258  0.24022643  0.11059022    -0.14000
C1815       C  0.61705547  0.23466317  0.12232162     0.08200
C1816       C  0.60811248  0.24006222  0.15930002    -0.14000
H1817       H  0.62855908  0.25090777  0.21336542     0.12200
H1818       H  0.70829991  0.25322518  0.12645082     0.12200
H1819       H  0.66020358  0.23810631  0.08176993     0.12200
H1820       H  0.57996824  0.23752216  0.16849718     0.12200
C1821       C  0.75639588  0.13344920  0.18434745    -0.14000
C1822       C  0.75502720  0.17029711  0.17318047     0.08200
C1823       C  0.74635077  0.17823378  0.13647518    -0.14000
C1824       C  0.73773828  0.15031235  0.11183842    -0.14000
C1825       C  0.73835383  0.11369701  0.12325604     0.08200
C1826       C  0.74909975  0.10526504  0.15928226    -0.14000
H1827       H  0.76277073  0.12663524  0.21254318     0.12200
H1828       H  0.74555383  0.20624808  0.12714015     0.12200
H1829       H  0.73122287  0.15725178  0.08365542     0.12200
H1830       H  0.75112601  0.07697926  0.16813048     0.12200
C1831       C  0.67994541  0.13574441  0.24430153    -0.14000
C1832       C  0.67214311  0.17227196  0.25358222     0.08200
C1833       C  0.63535114  0.18354465  0.25515112    -0.14000
C1834       C  0.60701576  0.15864276  0.24796961    -0.14000
C1835       C  0.61524632  0.12272341  0.23704643     0.08200
C1836       C  0.65182606  0.11125074  0.23589574    -0.14000
H1837       H  0.70799053  0.12653194  0.24252177     0.12200
H1838       H  0.62868884  0.21163883  0.26177898     0.12200
H1839       H  0.57876079  0.16751324  0.25029233     0.12200
H1840       H  0.65858913  0.08317525  0.22899861     0.12200
C1841       C  0.95089154  0.33425059  0.18479913    -0.14000
C1842       C  0.91428109  0.32929804  0.17378094     0.08200
C1843       C  0.90565927  0.33260965  0.13638814    -0.14000
C1844       C  0.93267016  0.34180908  0.11075040    -0.14000
C1845       C  0.96886594  0.34790847  0.12210822     0.08200
C1846       C  0.97811447  0.34281034  0.15908421    -0.14000
H1847       H  0.95817641  0.33212278  0.21344465     0.12200
H1848       H  0.87784215  0.32831747  0.12717974     0.12200
H1849       H  0.92543691  0.34368323  0.08196928     0.12200
H1850       H  0.50622107  0.34595621  0.16817208     0.12200
C1851       C  0.84028638  0.40375167  0.13643446    -0.14000
C1852       C  0.83149372  0.41163022  0.17307946     0.08200
C1853       C  0.82983021  0.44841270  0.18420796    -0.14000
C1854       C  0.83683967  0.47665473  0.15908717    -0.14000
C1855       C  0.84754477  0.46831661  0.12307191     0.08200
C1856       C  0.84854681  0.43175354  0.11171265    -0.14000
H1857       H  0.84128102  0.37576128  0.12717559     0.12200
H1858       H  0.82324143  0.45512453  0.21235270     0.12200
H1859       H  0.83453832  0.50491494  0.16784702     0.12200
H1860       H  0.85505952  0.42492257  0.08352727     0.12200
C1861       C  0.93334772  0.47164089  0.23617513    -0.14000
C1862       C  0.97003523  0.46050260  0.23747547     0.08200
C1863       C  0.97852394  0.42460502  0.24840227    -0.14000
C1864       C  0.95038739  0.39940074  0.25542660    -0.14000
C1865       C  0.91349227  0.41033723  0.25380275     0.08200
C1866       C  0.90540995  0.44684160  0.24448779    -0.14000
H1867       H  0.92635728  0.49967924  0.22924711     0.12200
H1868       H  0.00684619  0.41595848  0.25077321     0.12200
H1869       H  0.95729020  0.37132326  0.26198605     0.12200
H1870       H  0.87730318  0.45583802  0.24273693     0.12200
C1871       C  0.63700292  0.33276249  0.17875579    -0.14000
C1872       C  0.67440557  0.32930066  0.17031812     0.08200
C1873       C  0.68560894  0.33401311  0.13370251    -0.14000
C1874       C  0.66006882  0.34240988  0.10626932    -0.14000
C1875       C  0.62307214  0.34756079  0.11529718     0.08200
C1876       C  0.61153864  0.34179272  0.15152788    -0.14000
H1877       H  0.62765139  0.32874373  0.20659153     0.12200
H1878       H  0.71426663  0.33178111  0.12656450     0.12200
H1879       H  0.66918262  0.34519984  0.07810795     0.12200
H1880       H  0.58274906  0.34380952  0.15862762     0.12200
C1881       C  0.74583793  0.44646302  0.17893623    -0.14000
C1882       C  0.75495611  0.40996025  0.17085938     0.08200
C1883       C  0.75640402  0.39896832  0.13397888    -0.14000
C1884       C  0.74917686  0.42411578  0.10582422    -0.14000
C1885       C  0.73831006  0.45998173  0.11434727     0.08200
C1886       C  0.73735691  0.47119493  0.15100644    -0.14000
H1887       H  0.74427689  0.45547273  0.20705094     0.12200
H1888       H  0.76288279  0.37088646  0.12711669     0.12200
H1889       H  0.75132705  0.41545616  0.07748973     0.12200
H1890       H  0.73043333  0.99948697  0.15779430     0.12200
C1891       C  0.63733922  0.40441163  0.24399137    -0.14000
C1892       C  0.67404064  0.41216336  0.25269333     0.08200
C1893       C  0.68527511  0.44895440  0.25437941    -0.14000
C1894       C  0.66021001  0.47728770  0.24755343    -0.14000
C1895       C  0.62410940  0.46907492  0.23699780     0.08200
C1896       C  0.61266433  0.43250397  0.23596623    -0.14000
H1897       H  0.62797226  0.37644025  0.24291629     0.12200
H1898       H  0.71344467  0.45561861  0.26089594     0.12200
H1899       H  0.66908552  0.50552407  0.24987669     0.12200
H1900       H  0.58444571  0.42572115  0.22955231     0.12200
C1901       C  0.65206601  0.34251079  0.47260930    -0.14000
C1902       C  0.61583955  0.34775362  0.46097119     0.08200
C1903       C  0.60684228  0.34219221  0.42402252    -0.14000
C1904       C  0.63435211  0.33399262  0.39855943    -0.14000
C1905       C  0.67094831  0.32978568  0.40989345     0.08200
C1906       C  0.67933653  0.33356306  0.44726147    -0.14000
H1907       H  0.65911451  0.34479247  0.50139917     0.12200
H1908       H  0.57866638  0.34455917  0.41489168     0.12200
H1909       H  0.62728466  0.33146105  0.36989948     0.12200
H1910       H  0.70715023  0.32975624  0.45667875     0.12200
C1911       C  0.63464549  0.39898091  0.32786293    -0.14000
C1912       C  0.67146068  0.41024500  0.32930856     0.08200
C1913       C  0.67932383  0.44681220  0.33837903    -0.14000
C1914       C  0.65125345  0.47135656  0.34670924    -0.14000
C1915       C  0.61466125  0.45988269  0.34576060     0.08200
C1916       C  0.60634754  0.42392291  0.33502434    -0.14000
H1917       H  0.62794458  0.37084253  0.32144382     0.12200
H1918       H  0.70738521  0.45601497  0.34006380     0.12200
H1919       H  0.65800150  0.99926007  0.35281249     0.12200
H1920       H  0.57807547  0.41503754  0.33290762     0.12200
C1921       C  0.75514669  0.44950302  0.39901821    -0.14000
C1922       C  0.75350687  0.41268530  0.41027601     0.08200
C1923       C  0.74472796  0.40487942  0.44697447    -0.14000
C1924       C  0.73644150  0.43289747  0.47158246    -0.14000
C1925       C  0.73749049  0.46949054  0.46014886     0.08200
C1926       C  0.74822408  0.47779320  0.42407852    -0.14000
H1927       H  0.76162031  0.45621708  0.37081962     0.12200
H1928       H  0.74380316  0.37691015  0.45639407     0.12200
H1929       H  0.73027875  0.42559247  0.99981186     0.12200
H1930       H  0.74926966  0.00587307  0.41483503     0.12200
C1931       C  0.68498741  0.13353124  0.32885624    -0.14000
C1932       C  0.67369289  0.17031615  0.33036748     0.08200
C1933       C  0.63696417  0.17797527  0.33904580    -0.14000
C1934       C  0.61238702  0.14986243  0.34737177    -0.14000
C1935       C  0.62390657  0.11331886  0.34659752     0.08200
C1936       C  0.65999494  0.10515059  0.33595142    -0.14000
H1937       H  0.71318476  0.12691261  0.32241603     0.12200
H1938       H  0.62752126  0.20592110  0.33993405     0.12200
H1939       H  0.58416483  0.15660786  0.35380091     0.12200
H1940       H  0.66892497  0.07692475  0.33378583     0.12200
C1941       C  0.75500260  0.18402021  0.44989637    -0.14000
C1942       C  0.75376885  0.17290768  0.41304457     0.08200
C1943       C  0.74477849  0.13636429  0.40501323    -0.14000
C1944       C  0.73633683  0.11165726  0.43297233    -0.14000
C1945       C  0.73717621  0.12295143  0.46960606     0.08200
C1946       C  0.74779323  0.15890564  0.47808650    -0.14000
H1947       H  0.76137856  0.21213748  0.45671160     0.12200
H1948       H  0.74332788  0.12728663  0.37691042     0.12200
H1949       H  0.72969515  0.08355354  0.42605128     0.12200
H1950       H  0.74911798  0.16774276  0.00635533     0.12200
C1951       C  0.68515975  0.24978405  0.44955452    -0.14000
C1952       C  0.67363868  0.25350907  0.41293970     0.08200
C1953       C  0.63622210  0.24953765  0.40483237    -0.14000
C1954       C  0.61104228  0.24086897  0.43242000    -0.14000
C1955       C  0.62287411  0.23616171  0.46868901     0.08200
C1956       C  0.65985624  0.24196501  0.47737324    -0.14000
H1957       H  0.71385028  0.25246700  0.45641465     0.12200
H1958       H  0.62663806  0.25287446  0.37699999     0.12200
H1959       H  0.58223683  0.23831373  0.42556306     0.12200
H1960       H  0.66862966  0.23991627  0.00525258     0.12200
C1961       C  0.83655280  0.10596652  0.42497322    -0.14000
C1962       C  0.84736951  0.11418907  0.46098029     0.08200
C1963       C  0.84788738  0.15066766  0.47262759    -0.14000
C1964       C  0.83910350  0.17873149  0.44817991    -0.14000
C1965       C  0.83036713  0.17102056  0.41148646     0.08200
C1966       C  0.82904654  0.13429962  0.40010625    -0.14000
H1967       H  0.83452699  0.07774154  0.41602935     0.12200
H1968       H  0.85456767  0.15775792  0.00075249     0.12200
H1969       H  0.83980441  0.20667354  0.45763425     0.12200
H1970       H  0.82252339  0.12772102  0.37191251     0.12200
C1971       C  0.90536834  0.13620537  0.34077986    -0.14000
C1972       C  0.91339551  0.17279761  0.33178767     0.08200
C1973       C  0.95027880  0.18387160  0.33043231    -0.14000
C1974       C  0.97846202  0.15866983  0.33726491    -0.14000
C1975       C  0.97001660  0.12260659  0.34769581     0.08200
C1976       C  0.93333881  0.11139173  0.34885746    -0.14000
H1977       H  0.87727673  0.12710482  0.34236447     0.12200
H1978       H  0.95714607  0.21200329  0.32407749     0.12200
H1979       H  0.00677454  0.16740422  0.33501413     0.12200
H1980       H  0.92638034  0.08325694  0.35543565     0.12200
C1981       C  0.94992203  0.24981333  0.39987911    -0.14000
C1982       C  0.91334300  0.25381540  0.41135151     0.08200
C1983       C  0.90514691  0.24982170  0.44877576    -0.14000
C1984       C  0.93257298  0.24074911  0.47397588    -0.14000
C1985       C  0.96877369  0.23566899  0.46216133     0.08200
C1986       C  0.97758099  0.24156186  0.42519601    -0.14000
H1987       H  0.95686197  0.25256564  0.37119597     0.12200
H1988       H  0.87735031  0.25337791  0.45833325     0.12200
H1989       H  0.92436525  0.24002884  0.00336578     0.12200
H1990       H  0.50579521  0.24028223  0.41591487     0.12200
C1991       C  0.83938733  0.44752966  0.40461746    -0.14000
C1992       C  0.83019688  0.41095786  0.41259211     0.08200
C1993       C  0.82868338  0.39980471  0.44946674    -0.14000
C1994       C  0.83583049  0.42480969  0.47769435    -0.14000
C1995       C  0.84662586  0.46077685  0.46932068     0.08200
C1996       C  0.84767346  0.47217578  0.43265608    -0.14000
H1997       H  0.84115613  0.45667533  0.37651347     0.12200
H1998       H  0.82224027  0.37167185  0.45627915     0.12200
H1999       H  0.83363020  0.41595882  0.50599911     0.12200
H2000       H  0.85449508  0.50026869  0.42576115     0.12200
C2001       C  0.89935632  0.33455185  0.45020721    -0.14000
C2002       C  0.91044923  0.33011602  0.41356412     0.08200
C2003       C  0.94776801  0.33372491  0.40490047    -0.14000
C2004       C  0.97331292  0.34278938  0.43193929    -0.14000
C2005       C  0.96191500  0.34824659  0.46820987     0.08200
C2006       C  0.92501829  0.34281506  0.47749485    -0.14000
H2007       H  0.87073225  0.33218885  0.45747664     0.12200
H2008       H  0.95699310  0.32964573  0.37706201     0.12200
H2009       H  0.50193980  0.34508608  0.42507525     0.12200
H2010       H  0.91608519  0.34532029  0.50573068     0.12200
C2011       C  0.94783196  0.40425899  0.33904643    -0.14000
C2012       C  0.91117173  0.41219585  0.33038613     0.08200
C2013       C  0.90003893  0.44899402  0.32871033    -0.14000
C2014       C  0.92515470  0.47719612  0.33564837    -0.14000
C2015       C  0.96114705  0.46879444  0.34637570     0.08200
C2016       C  0.97253138  0.43221202  0.34730752    -0.14000
H2017       H  0.95713727  0.37627064  0.33986786     0.12200
H2018       H  0.87186787  0.45574736  0.32227729     0.12200
H2019       H  0.91637457  0.50546926  0.33339678     0.12200
H2020       H  0.50034119  0.42575309  0.35435932     0.12200
C2021       C  0.83628207  0.33644648  0.83647450     0.44800
H2022       H  0.81959614  0.31938049  0.81959476    -0.04200
C2023       C  0.87625450  0.37718407  0.87676443     0.44900
H2024       H  0.89386929  0.39501242  0.89441274    -0.04200
C2025       C  0.86208449  0.36214021  0.81298184    -0.17900
C2026       C  0.81264904  0.36233041  0.86201278    -0.17600
C2027       C  0.86203198  0.31331562  0.86259019    -0.18000
C2028       C  0.88284362  0.38372589  0.83635241    -0.18000
C2029       C  0.83591478  0.38362718  0.88330026    -0.17600
C2030       C  0.88292689  0.33694815  0.88384870    -0.17900
C2031       C  0.87712368  0.20734585  0.87791835     0.44800
H2032       H  0.89483368  0.18987053  0.89587821    -0.04200
C2033       C  0.83678498  0.24722052  0.83700418     0.44900
H2034       H  0.81989004  0.26392550  0.81990093    -0.04200
C2035       C  0.83672879  0.20023944  0.88401478    -0.17900
C2036       C  0.88346387  0.24770010  0.88440757    -0.17600
C2037       C  0.88434936  0.20074736  0.83768489    -0.18000
C2038       C  0.81331941  0.22137357  0.86268294    -0.18000
C2039       C  0.86220394  0.27088395  0.86292873    -0.17600
C2040       C  0.86297587  0.22150535  0.81391686    -0.17900
C2041       C  0.74742120  0.24695039  0.83651496     0.44800
H2042       H  0.76433079  0.26381607  0.81956002    -0.04200
C2043       C  0.70700700  0.20678654  0.87712968     0.44900
H2044       H  0.68928557  0.18921772  0.89500835    -0.04200
C2045       C  0.72185580  0.22082615  0.81327949    -0.17900
C2046       C  0.77082604  0.22146918  0.86267532    -0.17600
C2047       C  0.72146124  0.27045866  0.86198235    -0.18000
C2048       C  0.70072456  0.19954265  0.83681649    -0.18000
C2049       C  0.74732500  0.20051489  0.88412347    -0.17600
C2050       C  0.70032472  0.24712417  0.88340292    -0.17900
C2051       C  0.70627850  0.37667319  0.87565718     0.43400
H2052       H  0.68831464  0.39430338  0.89314640    -0.04200
C2053       C  0.74714917  0.33631664  0.83590491     0.44900
H2054       H  0.76421713  0.31936468  0.81931753    -0.04200
C2055       C  0.74654298  0.38389606  0.88230366    -0.17900
C2056       C  0.69984969  0.33634615  0.88249555    -0.17600
C2057       C  0.69965479  0.38279880  0.83524017    -0.18000
C2058       C  0.77020807  0.36245913  0.86157536    -0.18000
C2059       C  0.72138456  0.31291340  0.86172024    -0.17600
C2060       C  0.72131946  0.36176315  0.81210512    -0.17900
C2061       C  0.74774695  0.33566440  0.74673917     0.44800
H2062       H  0.76452300  0.31888952  0.76389601    -0.04200
C2063       C  0.70767245  0.37564855  0.70565415     0.44900
H2064       H  0.69006923  0.39313783  0.68759519    -0.04200
C2065       C  0.72186849  0.36175531  0.76965814    -0.17900
C2066       C  0.77133812  0.36113289  0.72074142    -0.17600
C2067       C  0.72213834  0.31204303  0.72106068    -0.18000
C2068       C  0.70102349  0.38301060  0.74587682    -0.18000
C2069       C  0.74801323  0.38198105  0.69901102    -0.17600
C2070       C  0.70115183  0.33528298  0.69939646    -0.17900
C2071       C  0.83707522  0.33567601  0.74713312     0.44800
H2072       H  0.82008590  0.31885159  0.76404729    -0.04200
C2073       C  0.87764326  0.37587876  0.70670619     0.44900
H2074       H  0.89539505  0.39352121  0.68892515    -0.04200
C2075       C  0.81379054  0.36132466  0.72116459    -0.17900
C2076       C  0.86274771  0.36159699  0.77050812    -0.17600
C2077       C  0.86301617  0.31224267  0.72155924    -0.18000
C2078       C  0.83729849  0.38256558  0.70009837    -0.18000
C2079       C  0.88426367  0.38256269  0.74699900    -0.17600
C2080       C  0.88444449  0.33559806  0.70039790    -0.17900
C2081       C  0.70774419  0.20579493  0.70709412     0.44800
H2082       H  0.69003950  0.18810320  0.68939767    -0.04200
C2083       C  0.74799250  0.24631835  0.74733101     0.44900
H2084       H  0.76481663  0.26334022  0.76411876    -0.04200
C2085       C  0.74812574  0.19879251  0.70090602    -0.17900
C2086       C  0.70114961  0.24608829  0.70027361    -0.17600
C2087       C  0.70068799  0.19959192  0.74742473    -0.18000
C2088       C  0.77147878  0.22030600  0.72188620    -0.18000
C2089       C  0.72234618  0.26960128  0.72128929    -0.17600
C2090       C  0.72195465  0.22074629  0.77082411    -0.17900
C2091       C  0.83720681  0.24650231  0.74769813     0.44800
H2092       H  0.82023744  0.26342231  0.76441757    -0.04200
C2093       C  0.87781494  0.20612230  0.70771163     0.44900
H2094       H  0.89567325  0.18847879  0.69013264    -0.04200
C2095       C  0.86289281  0.22090658  0.77140839    -0.17900
C2096       C  0.81395456  0.22057557  0.72187488    -0.17600
C2097       C  0.86307050  0.26984151  0.72188228    -0.18000
C2098       C  0.88408311  0.19948282  0.74819028    -0.18000
C2099       C  0.83755823  0.19946347  0.70075045    -0.17600
C2100       C  0.88427882  0.24642103  0.70078102    -0.17900
O2101       O  0.49616844  0.01722075  0.82291570    -0.72400
O2102       O  0.58786589  0.06552251  0.82318403    -0.72600
O2103       O  0.56615082  0.99562496  0.82238757    -0.72500
O2104       O  0.51779612  0.08719296  0.82372246    -0.72500
O2105       O  0.50325285  0.07592895  0.88029318    -0.72400
O2106       O  0.58112691  0.00524292  0.87910505    -0.72500
O2107       O  0.57766601  0.07949987  0.88003112    -0.72400
O2108       O  0.50681206  0.00171234  0.87936582    -0.72600
V2109       V  0.54199595  0.04138840  0.82362690     1.35200
V2110       V  0.54221532  0.04059479  0.87972887     1.35200
C2111       C  0.98801923  0.49761680  0.85003641     0.76800
C2112       C  0.59607660  0.08434748  0.85082125     0.76900
C2113       C  0.58516351  0.48741746  0.84965866     0.76800
C2114       C  0.99850780  0.09501676  0.85149446     0.76700
O2115       O  0.50323957  0.00633426  0.70375679    -0.72400
O2116       O  0.58115147  0.07704812  0.70361858    -0.72600
O2117       O  0.57765123  0.00279915  0.70312380    -0.72500
O2118       O  0.50678414  0.08058640  0.70431426    -0.72500
O2119       O  0.49683549  0.06526738  0.76092321    -0.72400
O2120       O  0.58851951  0.01701316  0.75980273    -0.72500
O2121       O  0.56683486  0.08692643  0.76045705    -0.72400
O2122       O  0.51842059  0.99535395  0.76021495    -0.72600
V2123       V  0.54220367  0.04168402  0.70366786     1.35200
V2124       V  0.54265591  0.04114214  0.75976940     1.35200
C2125       C  0.99880294  0.48773244  0.73277806     0.76800
C2126       C  0.58587315  0.09521327  0.73292851     0.76900
C2127       C  0.59633127  0.49835023  0.73235106     0.76800
C2128       C  0.98870355  0.08500108  0.73370334     0.76700
O2129       O  0.82384304  0.01685185  0.58761947    -0.72400
O2130       O  0.82389021  0.06612445  0.49644582    -0.72600
O2131       O  0.82350165  0.99606665  0.51737371    -0.72500
O2132       O  0.82420070  0.08703186  0.56667956    -0.72500
O2133       O  0.88080014  0.07614442  0.58119924    -0.72400
O2134       O  0.88016594  0.00628654  0.50254182    -0.72500
O2135       O  0.88065027  0.08045674  0.50678550    -0.72400
O2136       O  0.88038074  0.00194853  0.57687761    -0.72600
V2137       V  0.82443825  0.04152280  0.54203414     1.35200
V2138       V  0.88053040  0.04121377  0.54185635     1.35200
C2139       C  0.85114100  0.49745198  0.59586307     0.76800
C2140       C  0.85177903  0.08547850  0.98834722     0.76900
C2141       C  0.85063940  0.48823907  0.99788856     0.76800
C2142       C  0.85171494  0.09470427  0.58596137     0.76700
O2143       O  0.58714058  0.32354230  0.56742437    -0.72400
O2144       O  0.49763894  0.32421926  0.51574406    -0.72600
O2145       O  0.56826588  0.32399778  0.49680786    -0.72500
O2146       O  0.51654271  0.32374552  0.58635612    -0.72500
O2147       O  0.50353943  0.38098723  0.57715877    -0.72400
O2148       O  0.58166875  0.38108038  0.50642770    -0.72500
O2149       O  0.50728038  0.38141421  0.50273020    -0.72400
O2150       O  0.57796454  0.38068397  0.58081691    -0.72600
V2151       V  0.54239563  0.32462408  0.54158149     1.35200
V2152       V  0.54261726  0.38090986  0.54178427     1.35200
C2153       C  0.59564861  0.35116352  0.58607527     0.76800
C2154       C  0.98961672  0.35262507  0.99655057     0.76900
C2155       C  0.58720587  0.35218128  0.98856383     0.76800
C2156       C  0.99775027  0.35177752  0.59452159     0.76700
O2157       O  0.70444262  0.00572824  0.58057202    -0.72400
O2158       O  0.70399258  0.07697630  0.50312492    -0.72600
O2159       O  0.70394449  0.00270456  0.50619612    -0.72500
O2160       O  0.70453606  0.08000810  0.57752665    -0.72500
O2161       O  0.76126475  0.06529288  0.58737594    -0.72400
O2162       O  0.76058886  0.01728865  0.49552750    -0.72500
O2163       O  0.76080350  0.08714059  0.51738890    -0.72400
O2164       O  0.76102561  0.99543501  0.56551905    -0.72600
V2165       V  0.70421619  0.04135431  0.54185290     1.35200
V2166       V  0.76032735  0.04129280  0.54145544     1.35200
C2167       C  0.73357386  0.48721747  0.58497853     0.76800
C2168       C  0.73316799  0.09533930  0.99839072     0.76900
C2169       C  0.73286395  0.49813505  0.98803603     0.76800
C2170       C  0.73387745  0.08441206  0.59579935     0.76700
O2171       O  0.58728289  0.25959925  0.51663546    -0.72400
O2172       O  0.49791202  0.25922334  0.56871042    -0.72600
O2173       O  0.56854863  0.25902875  0.58738136    -0.72500
O2174       O  0.51660143  0.25977752  0.49798603    -0.72500
O2175       O  0.50331016  0.20257984  0.50714684    -0.72400
O2176       O  0.58161076  0.20191155  0.57751709    -0.72500
O2177       O  0.50729877  0.20195508  0.58153530    -0.72400
O2178       O  0.57767393  0.20255762  0.50311852    -0.72600
V2179       V  0.54258476  0.25866852  0.54267563     1.35200
V2180       V  0.54248315  0.20238573  0.54232619     1.35200
C2181       C  0.59514624  0.23170096  0.99721210     0.76800
C2182       C  0.98974631  0.23103015  0.58725654     0.76900
C2183       C  0.58706603  0.23116640  0.59551295     0.76800
C2184       C  0.99679081  0.23238624  0.99053543     0.76700
C2185       C  0.84077698  0.13530042  0.67983089    -0.14000
C2186       C  0.83144888  0.17183836  0.67190912     0.08200
C2187       C  0.82993045  0.18303513  0.63504652    -0.14000
C2188       C  0.83697177  0.15805084  0.60677391    -0.14000
C2189       C  0.84780856  0.12208681  0.61507625     0.08200
C2190       C  0.84908778  0.11070730  0.65174455    -0.14000
H2191       H  0.84266746  0.12614678  0.70792890     0.12200
H2192       H  0.82335315  0.21113638  0.62826584     0.12200
H2193       H  0.83459914  0.16690121  0.57848360     0.12200
H2194       H  0.85598734  0.08263100  0.65860427     0.12200
C2195       C  0.89983880  0.24858702  0.63476058    -0.14000
C2196       C  0.91118364  0.25289695  0.67134019     0.08200
C2197       C  0.94857933  0.24934763  0.67969449    -0.14000
C2198       C  0.97392356  0.24040800  0.65240140    -0.14000
C2199       C  0.96224528  0.23493077  0.61621083     0.08200
C2200       C  0.92527980  0.24036306  0.60724495    -0.14000
H2201       H  0.87117458  0.25103231  0.62771524     0.12200
H2202       H  0.95801480  0.25325292  0.70749183     0.12200
H2203       H  0.50270750  0.23820279  0.65937514     0.12200
H2204       H  0.91611761  0.23788968  0.57908283     0.12200
C2205       C  0.90040447  0.13386610  0.75675354    -0.14000
C2206       C  0.91158800  0.17066708  0.75496944     0.08200
C2207       C  0.94820289  0.17850190  0.74594887    -0.14000
C2208       C  0.97270644  0.15050998  0.73724845    -0.14000
C2209       C  0.96126751  0.11393994  0.73827210     0.08200
C2210       C  0.92539169  0.10560719  0.74951487    -0.14000
H2211       H  0.87223873  0.12715616  0.76331387     0.12200
H2212       H  0.95754164  0.20648660  0.74489495     0.12200
H2213       H  0.00080901  0.15735748  0.73036938     0.12200
H2214       H  0.91656450  0.07734757  0.75184637     0.12200
C2215       C  0.63511865  0.24917131  0.68502700    -0.14000
C2216       C  0.67171861  0.25247990  0.67342609     0.08200
C2217       C  0.67986853  0.24798488  0.63609338    -0.14000
C2218       C  0.65233775  0.23907753  0.61105142    -0.14000
C2219       C  0.61606233  0.23487658  0.62292873     0.08200
C2220       C  0.60731631  0.24126569  0.65980703    -0.14000
H2221       H  0.62825129  0.25235530  0.71367400     0.12200
H2222       H  0.70768201  0.25114682  0.62647120     0.12200
H2223       H  0.65921085  0.23614639  0.58227671     0.12200
H2224       H  0.57912423  0.23972428  0.66907607     0.12200
C2225       C  0.75564896  0.13291369  0.68474207    -0.14000
C2226       C  0.75469613  0.16976958  0.67352640     0.08200
C2227       C  0.74656990  0.17773215  0.63671214    -0.14000
C2228       C  0.73815867  0.14985867  0.61196246    -0.14000
C2229       C  0.73824051  0.11325444  0.62342247     0.08200
C2230       C  0.74838556  0.10475883  0.65961327    -0.14000
H2231       H  0.76167198  0.12607457  0.71300441     0.12200
H2232       H  0.74629110  0.20573123  0.62731208     0.12200
H2233       H  0.73216958  0.15682804  0.58367036     0.12200
H2234       H  0.75001939  0.07646339  0.66851296     0.12200
C2235       C  0.67952968  0.13557611  0.74515882    -0.14000
C2236       C  0.67166513  0.17223763  0.75381339     0.08200
C2237       C  0.63486841  0.18359120  0.75471937    -0.14000
C2238       C  0.60658939  0.15867427  0.74735970    -0.14000
C2239       C  0.61491156  0.12258617  0.73710464     0.08200
C2240       C  0.65147732  0.11100154  0.73676459    -0.14000
H2241       H  0.70758515  0.12629545  0.74391266     0.12200
H2242       H  0.62816470  0.21177383  0.76088886     0.12200
H2243       H  0.57832064  0.16763962  0.74907734     0.12200
H2244       H  0.65827831  0.08280596  0.73041466     0.12200
C2245       C  0.95046153  0.33372298  0.68459838    -0.14000
C2246       C  0.91385786  0.32926208  0.67336851     0.08200
C2247       C  0.90541991  0.33308559  0.63597981    -0.14000
C2248       C  0.93261285  0.34233745  0.61056740    -0.14000
C2249       C  0.96883920  0.34780923  0.62212889     0.08200
C2250       C  0.97789055  0.34218636  0.65907735    -0.14000
H2251       H  0.95760243  0.33117797  0.71324753     0.12200
H2252       H  0.87760473  0.32919119  0.62661040     0.12200
H2253       H  0.92550993  0.34464824  0.58178394     0.12200
H2254       H  0.50619776  0.34437934  0.66855005     0.12200
C2255       C  0.83933709  0.40378916  0.63600862    -0.14000
C2256       C  0.83081609  0.41150734  0.67274346     0.08200
C2257       C  0.82938999  0.44820117  0.68414977    -0.14000
C2258       C  0.83655135  0.47655940  0.65924603    -0.14000
C2259       C  0.84703854  0.46837666  0.62315188     0.08200
C2260       C  0.84764350  0.43190852  0.61146245    -0.14000
H2261       H  0.84008900  0.37584906  0.62655492     0.12200
H2262       H  0.82293001  0.45473943  0.71236446     0.12200
H2263       H  0.83451664  0.50477161  0.66822089     0.12200
H2264       H  0.85394664  0.42525498  0.58318459     0.12200
C2265       C  0.93315809  0.47152177  0.73573346    -0.14000
C2266       C  0.96980531  0.46023538  0.73689146     0.08200
C2267       C  0.97817421  0.42425332  0.74762626    -0.14000
C2268       C  0.94994295  0.39914400  0.75463738    -0.14000
C2269       C  0.91308418  0.41023624  0.75316577     0.08200
C2270       C  0.90513471  0.44680352  0.74399718    -0.14000
H2271       H  0.92626546  0.49962283  0.72896181     0.12200
H2272       H  0.00646610  0.41548101  0.74989478     0.12200
H2273       H  0.95674458  0.37102608  0.76111276     0.12200
H2274       H  0.87706904  0.45594176  0.74238342     0.12200
C2275       C  0.63690260  0.33281383  0.67846601    -0.14000
C2276       C  0.67421945  0.32868693  0.67005237     0.08200
C2277       C  0.68553003  0.33259326  0.63338873    -0.14000
C2278       C  0.66009234  0.34088901  0.60585265    -0.14000
C2279       C  0.62323098  0.34691680  0.61490028     0.08200
C2280       C  0.61161048  0.34194900  0.65118876    -0.14000
H2281       H  0.62750089  0.32919735  0.70632917     0.12200
H2282       H  0.71416664  0.32984911  0.62630560     0.12200
H2283       H  0.66919175  0.34305385  0.57763251     0.12200
H2284       H  0.58286902  0.34458354  0.65828402     0.12200
C2285       C  0.74552809  0.44609268  0.67831334    -0.14000
C2286       C  0.75443163  0.40955165  0.67021015     0.08200
C2287       C  0.75560508  0.39850498  0.63333253    -0.14000
C2288       C  0.74842688  0.42368320  0.60519714    -0.14000
C2289       C  0.73780910  0.45960795  0.61377065     0.08200
C2290       C  0.73704594  0.47084172  0.65041982    -0.14000
H2291       H  0.74419304  0.45513641  0.70642635     0.12200
H2292       H  0.76184156  0.37037224  0.62646199     0.12200
H2293       H  0.75042147  0.41501259  0.57685434     0.12200
H2294       H  0.73052507  0.99903537  0.65726029     0.12200
C2295       C  0.63696942  0.40464376  0.74315209    -0.14000
C2296       C  0.67368605  0.41225944  0.75188860     0.08200
C2297       C  0.68502713  0.44903423  0.75349876    -0.14000
C2298       C  0.66003078  0.47745162  0.74664277    -0.14000
C2299       C  0.62390474  0.46933691  0.73606231     0.08200
C2300       C  0.61240279  0.43279068  0.73499682    -0.14000
H2301       H  0.62745816  0.37672897  0.74227705     0.12200
H2302       H  0.71319840  0.45562486  0.76007743     0.12200
H2303       H  0.66896331  0.50566541  0.74901975     0.12200
H2304       H  0.58416431  0.42606874  0.72860467     0.12200
C2305       C  0.65221540  0.34320361  0.97231192    -0.14000
C2306       C  0.61591871  0.34829130  0.96085808     0.08200
C2307       C  0.60666273  0.34235654  0.92402984    -0.14000
C2308       C  0.63399966  0.33400562  0.89845238    -0.14000
C2309       C  0.67065438  0.32991069  0.90960249     0.08200
C2310       C  0.67928913  0.33395061  0.94688180    -0.14000
H2311       H  0.65944393  0.34571676  0.00103820     0.12200
H2312       H  0.57841860  0.34457895  0.91507565     0.12200
H2313       H  0.62676818  0.33134797  0.86983694     0.12200
H2314       H  0.70713954  0.33010787  0.95615391     0.12200
C2315       C  0.63395697  0.39901886  0.82719895    -0.14000
C2316       C  0.67079746  0.41023238  0.82851494     0.08200
C2317       C  0.67872349  0.44684352  0.83733869    -0.14000
C2318       C  0.65071906  0.47145658  0.84569947    -0.14000
C2319       C  0.61411301  0.46001688  0.84500259     0.08200
C2320       C  0.60571442  0.42404140  0.83435509    -0.14000
H2321       H  0.62719642  0.37083649  0.82102244     0.12200
H2322       H  0.70679774  0.45602928  0.83882044     0.12200
H2323       H  0.65788315  0.99966542  0.85171808     0.12200
H2324       H  0.57742257  0.41517990  0.83240555     0.12200
C2325       C  0.75381801  0.44978543  0.89880593    -0.14000
C2326       C  0.75270081  0.41288924  0.90986306     0.08200
C2327       C  0.74443489  0.40482389  0.94663448    -0.14000
C2328       C  0.73625493  0.43264896  0.97153564    -0.14000
C2329       C  0.73669726  0.46931642  0.96027188     0.08200
C2330       C  0.74680581  0.47787442  0.92407717    -0.14000
H2331       H  0.76001560  0.45672783  0.87060825     0.12200
H2332       H  0.74405603  0.37681103  0.95594608     0.12200
H2333       H  0.72990875  0.42604289  0.49978497     0.12200
H2334       H  0.74829750  0.00618268  0.91492367     0.12200
C2335       C  0.68470627  0.13357850  0.82924962    -0.14000
C2336       C  0.67337133  0.17035540  0.83052201     0.08200
C2337       C  0.63660171  0.17802089  0.83902062    -0.14000
C2338       C  0.61203734  0.14991885  0.84744986    -0.14000
C2339       C  0.62359482  0.11338106  0.84685293     0.08200
C2340       C  0.65971802  0.10520627  0.83635040    -0.14000
H2341       H  0.71292042  0.12695824  0.82290184     0.12200
H2342       H  0.62710456  0.20595193  0.83965812     0.12200
H2343       H  0.58377990  0.15665743  0.85373473     0.12200
H2344       H  0.66867559  0.07698154  0.83428894     0.12200
C2345       C  0.75456963  0.18412284  0.94986686    -0.14000
C2346       C  0.75363207  0.17299809  0.91300922     0.08200
C2347       C  0.74496874  0.13638056  0.90494413    -0.14000
C2348       C  0.73662356  0.11159685  0.93287754    -0.14000
C2349       C  0.73709787  0.12292657  0.96951041     0.08200
C2350       C  0.74732323  0.15898325  0.97802679    -0.14000
H2351       H  0.76069882  0.21228580  0.95670876     0.12200
H2352       H  0.74376079  0.12727985  0.87683686     0.12200
H2353       H  0.73028968  0.08342678  0.92593878     0.12200
H2354       H  0.74987033  0.16762042  0.50640928     0.12200
C2355       C  0.68477453  0.24997539  0.94938072    -0.14000
C2356       C  0.67335995  0.25366469  0.91274124     0.08200
C2357       C  0.63601142  0.24945974  0.90446274    -0.14000
C2358       C  0.61080286  0.24044961  0.93189632    -0.14000
C2359       C  0.62254948  0.23574519  0.96818149     0.08200
C2360       C  0.65943466  0.24185757  0.97705022    -0.14000
H2361       H  0.71341701  0.25287116  0.95636281     0.12200
H2362       H  0.62652282  0.25286537  0.87660914     0.12200
H2363       H  0.58203827  0.23773047  0.92493077     0.12200
H2364       H  0.66916399  0.23995868  0.50553281     0.12200
C2365       C  0.83686858  0.10623124  0.92494368    -0.14000
C2366       C  0.84774275  0.11451107  0.96092092     0.08200
C2367       C  0.84805595  0.15100605  0.97254836    -0.14000
C2368       C  0.83904095  0.17901901  0.94810250    -0.14000
C2369       C  0.83024700  0.17124725  0.91142975     0.08200
C2370       C  0.82906770  0.13450708  0.90010126    -0.14000
H2371       H  0.83493326  0.07799240  0.91602263     0.12200
H2372       H  0.85438420  0.15737132  0.50084802     0.12200
H2373       H  0.83970743  0.20697936  0.95751698     0.12200
H2374       H  0.82240255  0.12786527  0.87195662     0.12200
C2375       C  0.90506027  0.13651342  0.84102004    -0.14000
C2376       C  0.91316320  0.17302419  0.83174080     0.08200
C2377       C  0.95007209  0.18396831  0.83018502    -0.14000
C2378       C  0.97818710  0.15870648  0.83710973    -0.14000
C2379       C  0.96966622  0.12274592  0.84787548     0.08200
C2380       C  0.93295921  0.11167275  0.84925470    -0.14000
H2381       H  0.87695907  0.12748644  0.84263982     0.12200
H2382       H  0.95701168  0.21205890  0.82369614     0.12200
H2383       H  0.00652022  0.16732210  0.83467560     0.12200
H2384       H  0.92592185  0.08360396  0.85603199     0.12200
C2385       C  0.94932451  0.24996371  0.90044024    -0.14000
C2386       C  0.91269322  0.25436224  0.91157217     0.08200
C2387       C  0.90421782  0.25093120  0.94901320    -0.14000
C2388       C  0.93147488  0.24214164  0.97456812    -0.14000
C2389       C  0.96773556  0.23663053  0.96305623     0.08200
C2390       C  0.97675791  0.24191197  0.92605477    -0.14000
H2391       H  0.95647506  0.25213202  0.87175612     0.12200
H2392       H  0.87634582  0.25467835  0.95830823     0.12200
H2393       H  0.92565622  0.23820236  0.50278797     0.12200
H2394       H  0.50528106  0.23862527  0.91637173     0.12200
C2395       C  0.83859806  0.44786080  0.90403303    -0.14000
C2396       C  0.82939411  0.41128974  0.91198823     0.08200
C2397       C  0.82788136  0.40012219  0.94885224    -0.14000
C2398       C  0.83512389  0.42507776  0.97709097    -0.14000
C2399       C  0.84610331  0.46099114  0.96874182     0.08200
C2400       C  0.84710990  0.47242915  0.93208218    -0.14000
H2401       H  0.84030367  0.45703571  0.87593783     0.12200
H2402       H  0.82134693  0.37200521  0.95564839     0.12200
H2403       H  0.83292336  0.41620507  0.00538802     0.12200
H2404       H  0.85405008  0.50049682  0.92520430     0.12200
C2405       C  0.89913182  0.33574875  0.94978636    -0.14000
C2406       C  0.91010431  0.33081864  0.91316286     0.08200
C2407       C  0.94746548  0.33404700  0.90445406    -0.14000
C2408       C  0.97316342  0.34294897  0.93146968    -0.14000
C2409       C  0.96187176  0.34890102  0.96772545     0.08200
C2410       C  0.92488969  0.34404990  0.97699558    -0.14000
H2411       H  0.87051059  0.33368378  0.95712367     0.12200
H2412       H  0.95662476  0.32979265  0.87661191     0.12200
H2413       H  0.50213370  0.34461680  0.92438895     0.12200
H2414       H  0.91596778  0.34694231  0.00519568     0.12200
C2415       C  0.94699897  0.40438612  0.83809331    -0.14000
C2416       C  0.91033478  0.41246166  0.82965213     0.08200
C2417       C  0.89924077  0.44928383  0.82821114    -0.14000
C2418       C  0.92441608  0.47739467  0.83527047    -0.14000
C2419       C  0.96044840  0.46883579  0.84573197     0.08200
C2420       C  0.97178847  0.43223943  0.84633942    -0.14000
H2421       H  0.95620656  0.37634959  0.83885235     0.12200
H2422       H  0.87106020  0.45611615  0.82190317     0.12200
H2423       H  0.91567788  0.50570059  0.83326836     0.12200
H2424       H  0.50005677  0.42554575  0.85289411     0.12200
C2425       C  0.83676105  0.83621854  0.33679248     0.44800
H2426       H  0.82008404  0.81919878  0.31984052    -0.04200
C2427       C  0.87668472  0.87680938  0.37729364     0.44900
H2428       H  0.89425694  0.89457578  0.39505061    -0.04200
C2429       C  0.86260832  0.86201310  0.31343006    -0.17900
C2430       C  0.81309746  0.86202219  0.36235385    -0.17600
C2431       C  0.86242965  0.81300665  0.36291835    -0.18000
C2432       C  0.88340673  0.88347550  0.33691672    -0.18000
C2433       C  0.83633953  0.88324540  0.38372964    -0.17600
C2434       C  0.88324014  0.83656027  0.38431584    -0.17900
C2435       C  0.87765002  0.70701206  0.37803230     0.44800
H2436       H  0.89537563  0.68952165  0.39596582    -0.04200
C2437       C  0.83727600  0.74697096  0.33722372     0.44900
H2438       H  0.82039224  0.76371479  0.32016536    -0.04200
C2439       C  0.83727214  0.69980812  0.38407716    -0.17900
C2440       C  0.88391277  0.74737495  0.38455864    -0.17600
C2441       C  0.88493050  0.70057983  0.33780089    -0.18000
C2442       C  0.81386049  0.72103353  0.36283389    -0.18000
C2443       C  0.86263157  0.77058729  0.36316770    -0.17600
C2444       C  0.86352164  0.72138842  0.31409854    -0.17900
C2445       C  0.74801426  0.74672636  0.33670431     0.44800
H2446       H  0.76490762  0.76365617  0.31980569    -0.04200
C2447       C  0.70759480  0.70636853  0.37711383     0.44900
H2448       H  0.68985020  0.68871701  0.39488634    -0.04200
C2449       C  0.72253842  0.72070843  0.31329767    -0.17900
C2450       C  0.77139206  0.72116547  0.36283048    -0.17600
C2451       C  0.72196236  0.77009354  0.36221160    -0.18000
C2452       C  0.70145208  0.69925758  0.33673857    -0.18000
C2453       C  0.74789266  0.70015035  0.38421027    -0.17600
C2454       C  0.70080946  0.74666418  0.38352326    -0.17900
C2455       C  0.70673674  0.87620059  0.37623265     0.43400
H2456       H  0.68879879  0.89378463  0.39379748    -0.04200
C2457       C  0.74757322  0.83601510  0.33626530     0.44900
H2458       H  0.76464062  0.81915890  0.31956643    -0.04200
C2459       C  0.74701346  0.88342094  0.38277650    -0.17900
C2460       C  0.70031216  0.83587194  0.38297544    -0.17600
C2461       C  0.70005275  0.88244837  0.33585483    -0.18000
C2462       C  0.77066026  0.86208557  0.36195607    -0.18000
C2463       C  0.72184295  0.81252889  0.36207783    -0.17600
C2464       C  0.72170192  0.86154290  0.31259900    -0.17900
C2465       C  0.74813430  0.83592273  0.24703717     0.44800
H2466       H  0.76494262  0.81910694  0.26410769    -0.04200
C2467       C  0.70792972  0.87605342  0.20622884     0.44900
H2468       H  0.69028178  0.89362184  0.18829617    -0.04200
C2469       C  0.72222897  0.86180491  0.27014392    -0.17900
C2470       C  0.77168052  0.86154988  0.22115169    -0.17600
C2471       C  0.72253669  0.81239397  0.22125604    -0.18000
C2472       C  0.70131265  0.88314372  0.24650639    -0.18000
C2473       C  0.74828694  0.88251525  0.19958230    -0.17600
C2474       C  0.70138650  0.83570504  0.19975964    -0.17900
C2475       C  0.83746330  0.83593306  0.24745087     0.44800
H2476       H  0.82046678  0.81904610  0.26429440    -0.04200
C2477       C  0.87805183  0.87623999  0.20715546     0.44900
H2478       H  0.89583588  0.89390125  0.18943247    -0.04200
C2479       C  0.81417414  0.86171250  0.22153151    -0.17900
C2480       C  0.86316380  0.86172785  0.27093664    -0.17600
C2481       C  0.86344227  0.81254016  0.22186466    -0.18000
C2482       C  0.83770600  0.88300770  0.20049825    -0.18000
C2483       C  0.88465001  0.88279309  0.24749648    -0.17600
C2484       C  0.88485847  0.83595087  0.20076166    -0.17900
C2485       C  0.70847112  0.70617766  0.20696739     0.44800
H2486       H  0.69079188  0.68849526  0.18923815    -0.04200
C2487       C  0.74860989  0.74662507  0.24738772     0.44900
H2488       H  0.76538958  0.76360115  0.26428292    -0.04200
C2489       C  0.74885198  0.69922932  0.20080798    -0.17900
C2490       C  0.70188385  0.74645986  0.20013170    -0.17600
C2491       C  0.70139862  0.69987763  0.24730194    -0.18000
C2492       C  0.77215693  0.72066024  0.22191836    -0.18000
C2493       C  0.72293865  0.76994786  0.22131842    -0.17600
C2494       C  0.72261420  0.72093927  0.27080264    -0.17900
C2495       C  0.83781857  0.74669364  0.24795842     0.44800
H2496       H  0.82082743  0.76358216  0.26469502    -0.04200
C2497       C  0.87848945  0.70638773  0.20795045     0.44900
H2498       H  0.89636872  0.68876891  0.19036395    -0.04200
C2499       C  0.86349288  0.72102328  0.27162225    -0.17900
C2500       C  0.81461936  0.72082862  0.22203826    -0.17600
C2501       C  0.86366124  0.77011026  0.22221232    -0.18000
C2502       C  0.88470014  0.69967122  0.24839834    -0.18000
C2503       C  0.83824708  0.69972114  0.20092072    -0.17600
C2504       C  0.88496148  0.74671629  0.20115563    -0.17900
O2505       O  0.49636994  0.51753889  0.32335643    -0.72400
O2506       O  0.58833418  0.56539209  0.32335994    -0.72600
O2507       O  0.56630025  0.49555166  0.32293523    -0.72500
O2508       O  0.51836351  0.58738633  0.32383310    -0.72500
O2509       O  0.50371596  0.57637371  0.38042120    -0.72400
O2510       O  0.58139607  0.50548394  0.37956216    -0.72500
O2511       O  0.57814589  0.57974506  0.38011511    -0.72400
O2512       O  0.50706390  0.50213155  0.37981127    -0.72600
V2513       V  0.54234635  0.54146512  0.32393420     1.35200
V2514       V  0.54257771  0.54093605  0.38001964     1.35200
C2515       C  0.98831435  0.99783933  0.35068505     0.76800
C2516       C  0.59659560  0.58435713  0.35088818     0.76900
C2517       C  0.58562234  0.98711215  0.34996853     0.76800
C2518       C  0.99916504  0.59495643  0.35147149     0.76700
O2519       O  0.50357206  0.50684573  0.20425879    -0.72400
O2520       O  0.58205830  0.57697264  0.20396393    -0.72600
O2521       O  0.57796169  0.50271525  0.20396218    -0.72500
O2522       O  0.50772978  0.58108316  0.20428009    -0.72500
O2523       O  0.49743935  0.56614060  0.26093283    -0.72400
O2524       O  0.58879267  0.51731326  0.26054376    -0.72500
O2525       O  0.56751877  0.58738352  0.26065517    -0.72400
O2526       O  0.51857060  0.49609743  0.26079449    -0.72600
V2527       V  0.54283891  0.54189779  0.20407272     1.35200
V2528       V  0.54308285  0.54173552  0.26016240     1.35200
C2529       C  0.99901359  0.98809855  0.23335216     0.76800
C2530       C  0.58671400  0.59536579  0.23314666     0.76900
C2531       C  0.59639925  0.99812632  0.23284381     0.76800
C2532       C  0.98904396  0.58521727  0.23344810     0.76700
O2533       O  0.82410594  0.51665082  0.08783761    -0.72400
O2534       O  0.82383219  0.56645714  0.99695958    -0.72600
O2535       O  0.82340939  0.49623219  0.01743758    -0.72500
O2536       O  0.82450971  0.58690244  0.06730523    -0.72500
O2537       O  0.88121282  0.57597154  0.08138942    -0.72400
O2538       O  0.88005743  0.50632323  0.00249480    -0.72500
O2539       O  0.88071932  0.58050625  0.00697745    -0.72400
O2540       O  0.88060272  0.50176770  0.07687904    -0.72600
V2541       V  0.82455762  0.54155495  0.04238282     1.35200
V2542       V  0.88066382  0.54113737  0.04194083     1.35200
C2543       C  0.85133428  0.99734376  0.09513123     0.76800
C2544       C  0.85136305  0.58526814  0.48894709     0.76900
C2545       C  0.85082363  0.98808206  0.49795759     0.76800
C2546       C  0.85216781  0.59453307  0.08639668     0.76700
O2547       O  0.58704976  0.82395875  0.06750328    -0.72400
O2548       O  0.49777154  0.82467813  0.01527311    -0.72600
O2549       O  0.56845600  0.82445683  0.99671918    -0.72500
O2550       O  0.51635703  0.82418419  0.08601198    -0.72500
O2551       O  0.50325441  0.88136414  0.07663221    -0.72400
O2552       O  0.58200196  0.88145635  0.00657400    -0.72500
O2553       O  0.50763233  0.88178755  0.00215719    -0.72400
O2554       O  0.57767297  0.88101912  0.08101177    -0.72600
V2555       V  0.54241265  0.82504454  0.04137446     1.35200
V2556       V  0.54264589  0.88129299  0.04159369     1.35200
C2557       C  0.59536937  0.85150435  0.08637055     0.76800
C2558       C  0.98941987  0.85203523  0.49724868     0.76900
C2559       C  0.58712423  0.85171478  0.48865979     0.76800
C2560       C  0.99811691  0.85181436  0.09471672     0.76700
O2561       O  0.70459358  0.50586911  0.08124270    -0.72400
O2562       O  0.70366384  0.57693375  0.00356624    -0.72600
O2563       O  0.70384328  0.50258959  0.00682086    -0.72500
O2564       O  0.70446870  0.58015459  0.07795424    -0.72500
O2565       O  0.76128397  0.56563363  0.08759192    -0.72400
O2566       O  0.76040553  0.51729153  0.99592583    -0.72500
O2567       O  0.76051718  0.58723832  0.01756005    -0.72400
O2568       O  0.76114475  0.49569456  0.06602005    -0.72600
V2569       V  0.70412964  0.54137699  0.04239001     1.35200
V2570       V  0.76023920  0.54146160  0.04177953     1.35200
C2571       C  0.73362184  0.98761389  0.08526989     0.76800
C2572       C  0.73330197  0.59546581  0.49887162     0.76900
C2573       C  0.73302283  0.99821852  0.48752678     0.76800
C2574       C  0.73388953  0.58471858  0.09606353     0.76700
O2575       O  0.58686827  0.75995654  0.01598149    -0.72400
O2576       O  0.49849510  0.75934348  0.06951215    -0.72600
O2577       O  0.56943824  0.75925649  0.08695956    -0.72500
O2578       O  0.51587306  0.76010195  0.99851260    -0.72500
O2579       O  0.50260102  0.70296268  0.00790737    -0.72400
O2580       O  0.58259617  0.70226188  0.07661022    -0.72500
O2581       O  0.50833159  0.70213031  0.08223699    -0.72400
O2582       O  0.57691281  0.70301336  0.00230717    -0.72600
V2583       V  0.54266129  0.75895306  0.04273605     1.35200
V2584       V  0.54261879  0.70270690  0.04226451     1.35200
C2585       C  0.59521098  0.73131736  0.49719867     0.76800
C2586       C  0.99018612  0.73146080  0.08749477     0.76900
C2587       C  0.58826984  0.73147733  0.09463691     0.76800
C2588       C  0.99773886  0.73209519  0.48968314     0.76700
C2589       C  0.84097022  0.63542432  0.18014060    -0.14000
C2590       C  0.83216924  0.67206487  0.17207476     0.08200
C2591       C  0.83112179  0.68319539  0.13517800    -0.14000
C2592       C  0.83823974  0.65810069  0.10702187    -0.14000
C2593       C  0.84849063  0.62200089  0.11547300     0.08200
C2594       C  0.84918412  0.61065011  0.15217017    -0.14000
H2595       H  0.84233120  0.62626526  0.20825729     0.12200
H2596       H  0.82487696  0.71133679  0.12827617     0.12200
H2597       H  0.83627397  0.66693908  0.07869691     0.12200
H2598       H  0.85555576  0.58247454  0.15913544     0.12200
C2599       C  0.90051806  0.74925345  0.13520888    -0.14000
C2600       C  0.91191951  0.75321183  0.17180028     0.08200
C2601       C  0.94928409  0.74924025  0.18013215    -0.14000
C2602       C  0.97453224  0.74024000  0.15276962    -0.14000
C2603       C  0.96278997  0.73527982  0.11652631     0.08200
C2604       C  0.92587997  0.74112143  0.10761720    -0.14000
H2605       H  0.87187351  0.75201615  0.12819653     0.12200
H2606       H  0.95875156  0.75279177  0.20796299     0.12200
H2607       H  0.50342318  0.73775998  0.16052313     0.12200
H2608       H  0.91669272  0.73901827  0.07943234     0.12200
C2609       C  0.90076675  0.63400226  0.25626748    -0.14000
C2610       C  0.91208385  0.67077852  0.25516740     0.08200
C2611       C  0.94880869  0.67865691  0.24667333    -0.14000
C2612       C  0.97330416  0.65072135  0.23776397    -0.14000
C2613       C  0.96167161  0.61419385  0.23790028     0.08200
C2614       C  0.92566417  0.60579775  0.24862441    -0.14000
H2615       H  0.87256526  0.62728261  0.26263392     0.12200
H2616       H  0.95824316  0.70663518  0.24621282     0.12200
H2617       H  0.00152708  0.65756188  0.23139255     0.12200
H2618       H  0.91671689  0.57753561  0.25039439     0.12200
C2619       C  0.63600464  0.74895056  0.18440011    -0.14000
C2620       C  0.67261530  0.75285886  0.17305848     0.08200
C2621       C  0.68100043  0.74887827  0.13569189    -0.14000
C2622       C  0.65364236  0.74001726  0.11036771    -0.14000
C2623       C  0.61735667  0.73514478  0.12204501     0.08200
C2624       C  0.60843979  0.74091983  0.15897812    -0.14000
H2625       H  0.62894512  0.75167508  0.21304606     0.12200
H2626       H  0.70884962  0.75240677  0.12626382     0.12200
H2627       H  0.66065639  0.73756964  0.08158253     0.12200
H2628       H  0.58024561  0.73886152  0.16813750     0.12200
C2629       C  0.75635455  0.63339823  0.18468860    -0.14000
C2630       C  0.75543092  0.67022966  0.17341307     0.08200
C2631       C  0.74709091  0.67813998  0.13662926    -0.14000
C2632       C  0.73830881  0.65023514  0.11202783    -0.14000
C2633       C  0.73835472  0.61365146  0.12357834     0.08200
C2634       C  0.74880766  0.60521645  0.15968989    -0.14000
H2635       H  0.76257887  0.62660066  0.21291772     0.12200
H2636       H  0.74674622  0.70612960  0.12718997     0.12200
H2637       H  0.73209760  0.65715521  0.08377216     0.12200
H2638       H  0.75046848  0.57693779  0.16863699     0.12200
C2639       C  0.68037339  0.63584351  0.24485937    -0.14000
C2640       C  0.67247602  0.67245783  0.25366077     0.08200
C2641       C  0.63568080  0.68375506  0.25481712    -0.14000
C2642       C  0.60741375  0.65878553  0.24765281    -0.14000
C2643       C  0.61574488  0.62275392  0.23719747     0.08200
C2644       C  0.65232836  0.61125433  0.23650936    -0.14000
H2645       H  0.70843199  0.62661132  0.24347491     0.12200
H2646       H  0.62896707  0.71191925  0.26108343     0.12200
H2647       H  0.57914012  0.66768061  0.24962447     0.12200
H2648       H  0.65914430  0.58309967  0.23000028     0.12200
C2649       C  0.95091007  0.83419146  0.18497584    -0.14000
C2650       C  0.91430941  0.82959722  0.17377651     0.08200
C2651       C  0.90586633  0.83308796  0.13636216    -0.14000
C2652       C  0.93306521  0.84204197  0.11085931    -0.14000
C2653       C  0.96926755  0.84773963  0.12237891     0.08200
C2654       C  0.97832747  0.84251272  0.15938424    -0.14000
H2655       H  0.95804504  0.83194158  0.21365104     0.12200
H2656       H  0.87805588  0.82908479  0.12702251     0.12200
H2657       H  0.92596208  0.84406602  0.08205465     0.12200
H2658       H  0.50632525  0.84504143  0.16798166     0.12200
C2659       C  0.83980170  0.90383894  0.13618351    -0.14000
C2660       C  0.83124820  0.91180915  0.17287037     0.08200
C2661       C  0.82970407  0.94862405  0.18391144    -0.14000
C2662       C  0.83666187  0.97680211  0.15870058    -0.14000
C2663       C  0.84719088  0.96838245  0.12265646     0.08200
C2664       C  0.84799336  0.93178682  0.11135079    -0.14000
H2665       H  0.84066741  0.87582270  0.12697851     0.12200
H2666       H  0.82328881  0.95541495  0.21207509     0.12200
H2667       H  0.83450982  0.00508289  0.16743051     0.12200
H2668       H  0.85435981  0.92488902  0.08314835     0.12200
C2669       C  0.93335475  0.97179473  0.23620438    -0.14000
C2670       C  0.97002493  0.96059834  0.23753866     0.08200
C2671       C  0.97844126  0.92468616  0.24847596    -0.14000
C2672       C  0.95025263  0.89952320  0.25545326    -0.14000
C2673       C  0.91337526  0.91052043  0.25379262     0.08200
C2674       C  0.90536474  0.94704156  0.24448537    -0.14000
H2675       H  0.92641660  0.99984236  0.22926180     0.12200
H2676       H  0.00674658  0.91599205  0.25087517     0.12200
H2677       H  0.95710183  0.87142911  0.26199714     0.12200
H2678       H  0.87727122  0.95607655  0.24266986     0.12200
C2679       C  0.63691342  0.83299220  0.17888567    -0.14000
C2680       C  0.67428627  0.82923427  0.17042447     0.08200
C2681       C  0.68545544  0.83348171  0.13375209    -0.14000
C2682       C  0.65990100  0.84168182  0.10627407    -0.14000
C2683       C  0.62296324  0.84724451  0.11531559     0.08200
C2684       C  0.61145670  0.84195500  0.15162620    -0.14000
H2685       H  0.62757998  0.82921971  0.20675498     0.12200
H2686       H  0.71409452  0.83103201  0.12659326     0.12200
H2687       H  0.66898041  0.84411334  0.07807034     0.12200
H2688       H  0.58269918  0.84427089  0.15876350     0.12200
C2689       C  0.74563329  0.94669248  0.17882324    -0.14000
C2690       C  0.75465209  0.91014862  0.17078855     0.08200
C2691       C  0.75583812  0.89907165  0.13392513    -0.14000
C2692       C  0.74854103  0.92416910  0.10574472    -0.14000
C2693       C  0.73788631  0.96010665  0.11421687     0.08200
C2694       C  0.73711561  0.97139959  0.15086336    -0.14000
H2695       H  0.74423252  0.95577248  0.20692476     0.12200
H2696       H  0.76216827  0.87095037  0.12709388     0.12200
H2697       H  0.75053128  0.91542959  0.07742408     0.12200
H2698       H  0.73052241  0.49923532  0.15797582     0.12200
C2699       C  0.63715122  0.90447875  0.24412412    -0.14000
C2700       C  0.67387745  0.91223462  0.25271147     0.08200
C2701       C  0.68511501  0.94903867  0.25422874    -0.14000
C2702       C  0.66004483  0.97736002  0.24732187    -0.14000
C2703       C  0.62393131  0.96912065  0.23682311     0.08200
C2704       C  0.61248044  0.93254613  0.23597872    -0.14000
H2705       H  0.62774623  0.87651773  0.24327419     0.12200
H2706       H  0.71329439  0.95572207  0.26067793     0.12200
H2707       H  0.66892896  0.00560356  0.24953197     0.12200
H2708       H  0.58424669  0.92574285  0.22965424     0.12200
C2709       C  0.65222978  0.84244970  0.47267686    -0.14000
C2710       C  0.61597881  0.84762348  0.46107589     0.08200
C2711       C  0.60691258  0.84180589  0.42418369    -0.14000
C2712       C  0.63437368  0.83347216  0.39871699    -0.14000
C2713       C  0.67099700  0.82936642  0.40999388     0.08200
C2714       C  0.67945391  0.83332958  0.44733082    -0.14000
H2715       H  0.65933288  0.84492405  0.50143680     0.12200
H2716       H  0.57871815  0.84409949  0.41509096     0.12200
H2717       H  0.62725546  0.83080748  0.37007927     0.12200
H2718       H  0.70729776  0.82963638  0.45670564     0.12200
C2719       C  0.63436029  0.89863581  0.32798361    -0.14000
C2720       C  0.67119018  0.90987059  0.32926298     0.08200
C2721       C  0.67913151  0.94648484  0.33802993    -0.14000
C2722       C  0.65112902  0.97112437  0.34625657    -0.14000
C2723       C  0.61452879  0.95968682  0.34549796     0.08200
C2724       C  0.60611927  0.92366979  0.33503395    -0.14000
H2725       H  0.62760573  0.87046082  0.32178675     0.12200
H2726       H  0.70719812  0.95568442  0.33946002     0.12200
H2727       H  0.65806932  0.49945046  0.35349597     0.12200
H2728       H  0.57782705  0.91481240  0.33307120     0.12200
C2729       C  0.75440150  0.94934432  0.39877566    -0.14000
C2730       C  0.75320199  0.91254020  0.41012021     0.08200
C2731       C  0.74474255  0.90471755  0.44688811    -0.14000
C2732       C  0.73638839  0.93271645  0.47150100    -0.14000
C2733       C  0.73693529  0.96929122  0.45995905     0.08200
C2734       C  0.74727842  0.97761488  0.42378675    -0.14000
H2735       H  0.76076035  0.95606252  0.37055671     0.12200
H2736       H  0.74414710  0.87675203  0.45636524     0.12200
H2737       H  0.73083143  0.92571058  0.99975573     0.12200
H2738       H  0.75054091  0.50605016  0.41520403     0.12200
C2739       C  0.68538375  0.63331071  0.32923678    -0.14000
C2740       C  0.67410557  0.67011498  0.33032511     0.08200
C2741       C  0.63732788  0.67788691  0.33866258    -0.14000
C2742       C  0.61267363  0.64986752  0.34707428    -0.14000
C2743       C  0.62418098  0.61331047  0.34675931     0.08200
C2744       C  0.66033636  0.60501497  0.33645449    -0.14000
H2745       H  0.71361097  0.62661600  0.32301987     0.12200
H2746       H  0.62789926  0.70584999  0.33919339     0.12200
H2747       H  0.58440557  0.65668886  0.35321350     0.12200
H2748       H  0.66926232  0.57676398  0.33461818     0.12200
C2749       C  0.75527146  0.68395750  0.45001295    -0.14000
C2750       C  0.75417206  0.67271265  0.41319222     0.08200
C2751       C  0.74530631  0.63611047  0.40528770    -0.14000
C2752       C  0.73679005  0.61150416  0.43332220    -0.14000
C2753       C  0.73744327  0.62294800  0.46991657     0.08200
C2754       C  0.74800364  0.65894380  0.47828602    -0.14000
H2755       H  0.76157978  0.71211127  0.45673834     0.12200
H2756       H  0.74398728  0.62690808  0.37722107     0.12200
H2757       H  0.73021429  0.58336258  0.42648988     0.12200
H2758       H  0.74817999  0.66797929  0.00675958     0.12200
C2759       C  0.68506263  0.74919550  0.44951095    -0.14000
C2760       C  0.67375587  0.75306946  0.41285194     0.08200
C2761       C  0.63640182  0.74902755  0.40449181    -0.14000
C2762       C  0.61107241  0.74014840  0.43187868    -0.14000
C2763       C  0.62270789  0.73525894  0.46818685     0.08200
C2764       C  0.65962656  0.74109567  0.47711322    -0.14000
H2765       H  0.71369658  0.75195141  0.45657057     0.12200
H2766       H  0.62698550  0.75249774  0.37661973     0.12200
H2767       H  0.58230636  0.73762516  0.42484904     0.12200
H2768       H  0.66804154  0.74128878  0.00506180     0.12200
C2769       C  0.83703318  0.60580005  0.42531065    -0.14000
C2770       C  0.84737653  0.61419616  0.46141591     0.08200
C2771       C  0.84763680  0.65072584  0.47291501    -0.14000
C2772       C  0.83909411  0.67866900  0.44823210    -0.14000
C2773       C  0.83076174  0.67079282  0.41147981     0.08200
C2774       C  0.82969018  0.63401241  0.40024376    -0.14000
H2775       H  0.83522091  0.57753131  0.41645724     0.12200
H2776       H  0.85454254  0.65773325  0.00115787     0.12200
H2777       H  0.83953406  0.70664337  0.45759269     0.12200
H2778       H  0.82342269  0.62728562  0.37203222     0.12200
C2779       C  0.90575852  0.63637703  0.34054516    -0.14000
C2780       C  0.91387514  0.67300824  0.33181071     0.08200
C2781       C  0.95077949  0.68406276  0.33078621    -0.14000
C2782       C  0.97889102  0.65879830  0.33771440    -0.14000
C2783       C  0.97033294  0.62267258  0.34784687     0.08200
C2784       C  0.93364300  0.61148688  0.34866169    -0.14000
H2785       H  0.87764848  0.62729323  0.34185584     0.12200
H2786       H  0.95771789  0.71222931  0.32467274     0.12200
H2787       H  0.00722878  0.66751523  0.33572708     0.12200
H2788       H  0.92661066  0.58331276  0.35498697     0.12200
C2789       C  0.94984073  0.75050904  0.40006831    -0.14000
C2790       C  0.91322175  0.75405250  0.41152232     0.08200
C2791       C  0.90499085  0.74984059  0.44891314    -0.14000
C2792       C  0.93246016  0.74094515  0.47410902    -0.14000
C2793       C  0.96872090  0.73633835  0.46230484     0.08200
C2794       C  0.97754335  0.74252109  0.42539539    -0.14000
H2795       H  0.95677816  0.75340962  0.37139443     0.12200
H2796       H  0.87715453  0.75311119  0.45844379     0.12200
H2797       H  0.92541067  0.73959879  0.00300000     0.12200
H2798       H  0.50554018  0.73960187  0.41629182     0.12200
C2799       C  0.83855904  0.94748558  0.40431696    -0.14000
C2800       C  0.82978569  0.91084894  0.41241444     0.08200
C2801       C  0.82870517  0.89968531  0.44929472    -0.14000
C2802       C  0.83601692  0.92471638  0.47743252    -0.14000
C2803       C  0.84644402  0.96074923  0.46892674     0.08200
C2804       C  0.84693434  0.97219313  0.43226310    -0.14000
H2805       H  0.83995750  0.95662710  0.37618628     0.12200
H2806       H  0.82251651  0.87151385  0.45617061     0.12200
H2807       H  0.83421356  0.91584821  0.50575993     0.12200
H2808       H  0.85343612  0.00034630  0.42530519     0.12200
C2809       C  0.89918143  0.83439999  0.45034597    -0.14000
C2810       C  0.91030497  0.83031588  0.41366278     0.08200
C2811       C  0.94761010  0.83421515  0.40506474    -0.14000
C2812       C  0.97310010  0.84320662  0.43218279    -0.14000
C2813       C  0.96168944  0.84824920  0.46850867     0.08200
C2814       C  0.92481288  0.84252017  0.47773066    -0.14000
H2815       H  0.87057699  0.83177224  0.45759597     0.12200
H2816       H  0.95688458  0.83034838  0.37721956     0.12200
H2817       H  0.50197954  0.84544616  0.42481106     0.12200
H2818       H  0.91586499  0.84471093  0.50598866     0.12200
C2819       C  0.94753602  0.90444513  0.33896740    -0.14000
C2820       C  0.91085875  0.91235159  0.33039001     0.08200
C2821       C  0.89966364  0.94914235  0.32885595    -0.14000
C2822       C  0.92475704  0.97736182  0.33585048    -0.14000
C2823       C  0.96078383  0.96896515  0.34648767     0.08200
C2824       C  0.97220311  0.93239651  0.34729378    -0.14000
H2825       H  0.95689731  0.87647381  0.33961159     0.12200
H2826       H  0.87147821  0.95587393  0.32247080     0.12200
H2827       H  0.91594467  0.00563213  0.33368938     0.12200
H2828       H  0.50062412  0.92536347  0.35338609     0.12200
C2829       C  0.83651839  0.83635000  0.83654436     0.44800
H2830       H  0.81983293  0.81929296  0.81965395    -0.04200
C2831       C  0.87646294  0.87707404  0.87688197     0.44900
H2832       H  0.89404904  0.89490842  0.89455351    -0.04200
C2833       C  0.86226628  0.86213066  0.81307934    -0.17900
C2834       C  0.81287278  0.86217163  0.86210033    -0.17600
C2835       C  0.86228067  0.81321195  0.86265221    -0.18000
C2836       C  0.88302047  0.88370333  0.83647256    -0.18000
C2837       C  0.83611476  0.88343292  0.88342865    -0.17600
C2838       C  0.88316944  0.83683923  0.88392777    -0.17900
C2839       C  0.87713062  0.70721390  0.87815787     0.44800
H2840       H  0.89483537  0.68972204  0.89610361    -0.04200
C2841       C  0.83680402  0.74713269  0.83727358     0.44900
H2842       H  0.81992929  0.76385486  0.82018480    -0.04200
C2843       C  0.83671375  0.70025770  0.88439737    -0.17900
C2844       C  0.88365709  0.74757759  0.88447883    -0.17600
C2845       C  0.88421727  0.70050961  0.83791091    -0.18000
C2846       C  0.81332065  0.72138039  0.86303464    -0.18000
C2847       C  0.86236577  0.77077693  0.86305762    -0.17600
C2848       C  0.86286710  0.72133197  0.81416891    -0.17900
C2849       C  0.74748149  0.74689009  0.83665529     0.44800
H2850       H  0.76442343  0.76371413  0.81970047    -0.04200
C2851       C  0.70694731  0.70681080  0.87723347     0.44900
H2852       H  0.68915933  0.68929807  0.89510008    -0.04200
C2853       C  0.72191980  0.72077564  0.81340473    -0.17900
C2854       C  0.77081621  0.72146485  0.86295160    -0.17600
C2855       C  0.72147973  0.77045623  0.86198716    -0.18000
C2856       C  0.70079553  0.69945852  0.83692367    -0.18000
C2857       C  0.74724915  0.70057722  0.88441327    -0.17600
C2858       C  0.70021180  0.74717340  0.88332060    -0.17900
C2859       C  0.70655775  0.87668957  0.87567962     0.43400
H2860       H  0.68861817  0.89436685  0.89315076    -0.04200
C2861       C  0.74735799  0.83624960  0.83592318     0.44900
H2862       H  0.76440827  0.81927165  0.81931903    -0.04200
C2863       C  0.74681591  0.88381762  0.88233574    -0.17900
C2864       C  0.70002651  0.83638899  0.88251365    -0.17600
C2865       C  0.70000390  0.88283915  0.83527310    -0.18000
C2866       C  0.77044754  0.86233104  0.86163169    -0.18000
C2867       C  0.72149807  0.81290657  0.86171539    -0.17600
C2868       C  0.72160830  0.86178132  0.81213333    -0.17900
C2869       C  0.74789330  0.83576539  0.74671162     0.44800
H2870       H  0.76465166  0.81896670  0.76385098    -0.04200
C2871       C  0.70780630  0.87582851  0.70572161     0.44900
H2872       H  0.69019330  0.89336122  0.68771413    -0.04200
C2873       C  0.72210759  0.86184498  0.76969374    -0.17900
C2874       C  0.77148183  0.86122922  0.72069437    -0.17600
C2875       C  0.72217334  0.81220343  0.72109253    -0.18000
C2876       C  0.70125963  0.88314843  0.74596603    -0.18000
C2877       C  0.74815243  0.88210626  0.69899056    -0.17600
C2878       C  0.70115759  0.83547991  0.69948578    -0.17900
C2879       C  0.83716818  0.83578967  0.74721866     0.44800
H2880       H  0.82015374  0.81899188  0.76412553    -0.04200
C2881       C  0.87782940  0.87589861  0.70679364     0.44900
H2882       H  0.89563940  0.89348018  0.68901527    -0.04200
C2883       C  0.81394254  0.86142917  0.72115380    -0.17900
C2884       C  0.86284707  0.86169831  0.77059940    -0.17600
C2885       C  0.86311897  0.81226591  0.72176406    -0.18000
C2886       C  0.83749702  0.88264711  0.70008378    -0.18000
C2887       C  0.88437934  0.88265500  0.74709280    -0.17600
C2888       C  0.88461586  0.83556873  0.70060446    -0.17900
C2889       C  0.70758911  0.70599362  0.70723005     0.44800
H2890       H  0.68985391  0.68830674  0.68955723    -0.04200
C2891       C  0.74789342  0.74646644  0.74746253     0.44900
H2892       H  0.76474675  0.76345541  0.76425569    -0.04200
C2893       C  0.74796490  0.69895608  0.70103456    -0.17900
C2894       C  0.70105684  0.74628689  0.70036995    -0.17600
C2895       C  0.70055116  0.69979451  0.74756093    -0.18000
C2896       C  0.77134957  0.72045671  0.72203204    -0.18000
C2897       C  0.72227200  0.76977166  0.72139370    -0.17600
C2898       C  0.72188856  0.72086567  0.77095272    -0.17900
C2899       C  0.83714657  0.74654224  0.74797460     0.44800
H2900       H  0.82021166  0.76351643  0.76469916    -0.04200
C2901       C  0.87764965  0.70606561  0.70796969     0.44900
H2902       H  0.89543762  0.68837802  0.69036293    -0.04200
C2903       C  0.86275561  0.72080438  0.77166531    -0.17900
C2904       C  0.81382493  0.72070082  0.72210825    -0.17600
C2905       C  0.86310415  0.76983642  0.72217647    -0.18000
C2906       C  0.88386686  0.69932310  0.74842807    -0.18000
C2907       C  0.83737437  0.69956789  0.70099672    -0.17600
C2908       C  0.88428225  0.74634951  0.70110899    -0.17900
O2909       O  0.49584278  0.51749118  0.82298176    -0.72400
O2910       O  0.58750897  0.56585372  0.82336093    -0.72600
O2911       O  0.56582674  0.49591138  0.82241663    -0.72500
O2912       O  0.51745697  0.58746901  0.82391142    -0.72500
O2913       O  0.50293564  0.57616363  0.88048156    -0.72400
O2914       O  0.58080681  0.50540790  0.87914272    -0.72500
O2915       O  0.57734890  0.57970766  0.88024121    -0.72400
O2916       O  0.50649225  0.50190657  0.87940822    -0.72600
V2917       V  0.54166067  0.54168197  0.82374809     1.35200
V2918       V  0.54189020  0.54079447  0.87984869     1.35200
C2919       C  0.98800622  0.99781543  0.85027877     0.76800
C2920       C  0.59573884  0.58462250  0.85103038     0.76900
C2921       C  0.58549425  0.98721900  0.84965322     0.76800
C2922       C  0.99848578  0.59473860  0.85109574     0.76700
O2923       O  0.50314467  0.50658933  0.70391324    -0.72400
O2924       O  0.58105777  0.57729459  0.70386309    -0.72600
O2925       O  0.57755247  0.50303557  0.70335247    -0.72500
O2926       O  0.50671919  0.58083873  0.70447332    -0.72500
O2927       O  0.49666828  0.56547482  0.76105423    -0.72400
O2928       O  0.58843984  0.51730040  0.76000755    -0.72500
O2929       O  0.56662169  0.58720952  0.76066217    -0.72400
O2930       O  0.51832870  0.49556215  0.76035977    -0.72600
V2931       V  0.54211564  0.54193189  0.70386102     1.35200
V2932       V  0.54251781  0.54138544  0.75995129     1.35200
C2933       C  0.99896822  0.98785928  0.73301803     0.76800
C2934       C  0.58570783  0.59548566  0.73316713     0.76900
C2935       C  0.59641532  0.99810221  0.73212832     0.76800
C2936       C  0.98843034  0.58486369  0.73344566     0.76700
O2937       O  0.82370897  0.51675864  0.58803122    -0.72400
O2938       O  0.82380055  0.56620793  0.49697547    -0.72600
O2939       O  0.82351584  0.49605466  0.51776932    -0.72500
O2940       O  0.82394498  0.58692686  0.56725613    -0.72500
O2941       O  0.88057735  0.57619035  0.58178183    -0.72400
O2942       O  0.88018766  0.50638202  0.50307126    -0.72500
O2943       O  0.88054160  0.58056538  0.50738223    -0.72400
O2944       O  0.88031555  0.50202490  0.57739403    -0.72600
V2945       V  0.82432585  0.54149192  0.54250901     1.35200
V2946       V  0.88042752  0.54129583  0.54241462     1.35200
C2947       C  0.85123495  0.99746469  0.59542955     0.76800
C2948       C  0.85141355  0.58543024  0.98879174     0.76900
C2949       C  0.85080131  0.98831631  0.99759344     0.76800
C2950       C  0.85143670  0.59465754  0.58654041     0.76700
O2951       O  0.58690124  0.82381180  0.56781199    -0.72400
O2952       O  0.49777556  0.82439557  0.51555349    -0.72600
O2953       O  0.56848464  0.82400889  0.49708775    -0.72500
O2954       O  0.51619867  0.82417890  0.58626400    -0.72500
O2955       O  0.50353678  0.88149529  0.57700566    -0.72400
O2956       O  0.58173969  0.88118890  0.50633109    -0.72500
O2957       O  0.50735113  0.88161738  0.50256976    -0.72400
O2958       O  0.57796814  0.88109807  0.58074058    -0.72600
V2959       V  0.54234288  0.82487244  0.54167693     1.35200
V2960       V  0.54265242  0.88119512  0.54166198     1.35200
C2961       C  0.59549190  0.85153116  0.58627432     0.76800
C2962       C  0.98952393  0.85231869  0.99699661     0.76900
C2963       C  0.58724519  0.85214757  0.98859280     0.76800
C2964       C  0.99807940  0.85147458  0.59481252     0.76700
O2965       O  0.70435262  0.50565532  0.58070296    -0.72400
O2966       O  0.70412627  0.57696771  0.50331341    -0.72600
O2967       O  0.70423538  0.50270102  0.50633608    -0.72500
O2968       O  0.70427425  0.57993855  0.57774074    -0.72500
O2969       O  0.76094063  0.56520816  0.58793389    -0.72400
O2970       O  0.76082737  0.51759235  0.49585248    -0.72500
O2971       O  0.76077759  0.58736144  0.51802934    -0.72400
O2972       O  0.76098024  0.49544954  0.56576100    -0.72600
V2973       V  0.70421405  0.54132051  0.54202356     1.35200
V2974       V  0.76030244  0.54140434  0.54189816     1.35200
C2975       C  0.73365562  0.98727085  0.58482231     0.76800
C2976       C  0.73280512  0.59540725  0.99877181     0.76900
C2977       C  0.73288393  0.99816816  0.98775457     0.76800
C2978       C  0.73349898  0.58431940  0.59621015     0.76700
O2979       O  0.58695291  0.75909464  0.51572362    -0.72400
O2980       O  0.49857934  0.75904333  0.56929991    -0.72600
O2981       O  0.56946047  0.75872319  0.58670590    -0.72500
O2982       O  0.51598634  0.75940025  0.49830589    -0.72500
O2983       O  0.50319259  0.70204788  0.50725448    -0.72400
O2984       O  0.58181686  0.70136684  0.57733547    -0.72500
O2985       O  0.50748239  0.70158670  0.58164516    -0.72400
O2986       O  0.57757172  0.70184165  0.50293620    -0.72600
V2987       V  0.54274395  0.75826689  0.54250322     1.35200
V2988       V  0.54252420  0.70190310  0.54228793     1.35200
C2989       C  0.59473676  0.73243338  0.99691643     0.76800
C2990       C  0.98970044  0.73142182  0.58733180     0.76900
C2991       C  0.58770120  0.73074143  0.59499941     0.76800
C2992       C  0.99762371  0.73226458  0.98980998     0.76700
C2993       C  0.84011658  0.63537487  0.68026863    -0.14000
C2994       C  0.83113131  0.67196311  0.67222315     0.08200
C2995       C  0.82985323  0.68312745  0.63534968    -0.14000
C2996       C  0.83690576  0.65806722  0.60716542    -0.14000
C2997       C  0.84746936  0.62205680  0.61559549     0.08200
C2998       C  0.84841376  0.61068980  0.65227503    -0.14000
H2999       H  0.84172691  0.62624669  0.70839036     0.12200
H3000       H  0.82352852  0.71126962  0.62849787     0.12200
H3001       H  0.83477851  0.66689320  0.57884834     0.12200
H3002       H  0.85506592  0.58257172  0.65920776     0.12200
C3003       C  0.89986441  0.74886626  0.63508540    -0.14000
C3004       C  0.91124183  0.75276185  0.67169819     0.08200
C3005       C  0.94862530  0.74893141  0.68000575    -0.14000
C3006       C  0.97392902  0.74018354  0.65260827    -0.14000
C3007       C  0.96223376  0.73527218  0.61634171     0.08200
C3008       C  0.92528544  0.74096199  0.60745460    -0.14000
H3009       H  0.87120127  0.75147566  0.62808084     0.12200
H3010       H  0.95809674  0.75255115  0.70782299     0.12200
H3011       H  0.50288183  0.73830113  0.65989065     0.12200
H3012       H  0.91610737  0.73886487  0.57926779     0.12200
C3013       C  0.90009982  0.63361690  0.75661762    -0.14000
C3014       C  0.91131422  0.67042427  0.75514168     0.08200
C3015       C  0.94796064  0.67828474  0.74628497    -0.14000
C3016       C  0.97246058  0.65034563  0.73740685    -0.14000
C3017       C  0.96097218  0.61378348  0.73802629     0.08200
C3018       C  0.92505814  0.60539525  0.74911398    -0.14000
H3019       H  0.87193799  0.62687644  0.76314840     0.12200
H3020       H  0.95734636  0.70626162  0.74558051     0.12200
H3021       H  0.00060262  0.65722256  0.73072305     0.12200
H3022       H  0.91620229  0.57712513  0.75119616     0.12200
C3023       C  0.63516302  0.74918872  0.68466041    -0.14000
C3024       C  0.67181518  0.75268551  0.67330469     0.08200
C3025       C  0.68022754  0.74815485  0.63602746    -0.14000
C3026       C  0.65292413  0.73890859  0.61083661    -0.14000
C3027       C  0.61661380  0.73440601  0.62251565     0.08200
C3028       C  0.60760426  0.74089863  0.65931081    -0.14000
H3029       H  0.62807374  0.75245057  0.71324239     0.12200
H3030       H  0.70807817  0.75153257  0.62657839     0.12200
H3031       H  0.65998565  0.73599038  0.58210662     0.12200
H3032       H  0.57936417  0.73921550  0.66840968     0.12200
C3033       C  0.75523199  0.63301139  0.68505476    -0.14000
C3034       C  0.75443444  0.66983606  0.67372321     0.08200
C3035       C  0.74629335  0.67770485  0.63689047    -0.14000
C3036       C  0.73772770  0.64978388  0.61224524    -0.14000
C3037       C  0.73773944  0.61320975  0.62380360     0.08200
C3038       C  0.74788119  0.60479874  0.66001527    -0.14000
H3039       H  0.76124890  0.62624168  0.71333378     0.12200
H3040       H  0.74612682  0.70566814  0.62738993     0.12200
H3041       H  0.73175222  0.65668619  0.58393329     0.12200
H3042       H  0.74947339  0.57652602  0.66899397     0.12200
C3043       C  0.67935160  0.63577759  0.74565946    -0.14000
C3044       C  0.67149161  0.67250647  0.75399664     0.08200
C3045       C  0.63470837  0.68392304  0.75465164    -0.14000
C3046       C  0.60642459  0.65900320  0.74733951    -0.14000
C3047       C  0.61474977  0.62283601  0.73738420     0.08200
C3048       C  0.65129767  0.61118614  0.73732552    -0.14000
H3049       H  0.70740075  0.62644914  0.74461563     0.12200
H3050       H  0.62802197  0.71215596  0.76060444     0.12200
H3051       H  0.57816208  0.66802580  0.74884551     0.12200
H3052       H  0.65808231  0.58293487  0.73120818     0.12200
C3053       C  0.95069086  0.83326574  0.68489425    -0.14000
C3054       C  0.91405745  0.82910624  0.67363471     0.08200
C3055       C  0.90567894  0.83299411  0.63624480    -0.14000
C3056       C  0.93293769  0.84208946  0.61085781    -0.14000
C3057       C  0.96919117  0.84731018  0.62243521     0.08200
C3058       C  0.97820314  0.84151953  0.65937627    -0.14000
H3059       H  0.95779324  0.83065746  0.71355001     0.12200
H3060       H  0.87785474  0.82925490  0.62685045     0.12200
H3061       H  0.92584901  0.84452156  0.58208126     0.12200
H3062       H  0.50609459  0.84478056  0.66834025     0.12200
C3063       C  0.83966059  0.90382356  0.63591296    -0.14000
C3064       C  0.83107514  0.91158539  0.67262946     0.08200
C3065       C  0.82955806  0.94832456  0.68391617    -0.14000
C3066       C  0.83657578  0.97665128  0.65890076    -0.14000
C3067       C  0.84713355  0.96842374  0.62282618     0.08200
C3068       C  0.84792919  0.93190752  0.61128653    -0.14000
H3069       H  0.84046924  0.87587103  0.62651837     0.12200
H3070       H  0.82312092  0.95493203  0.71211961     0.12200
H3071       H  0.83442689  0.00488100  0.66779418     0.12200
H3072       H  0.85430737  0.92518235  0.58304356     0.12200
C3073       C  0.93328878  0.97167166  0.73606833    -0.14000
C3074       C  0.96994201  0.96037240  0.73713420     0.08200
C3075       C  0.97830557  0.92433389  0.74767330    -0.14000
C3076       C  0.95007141  0.89921086  0.75463289    -0.14000
C3077       C  0.91321108  0.91031937  0.75328124     0.08200
C3078       C  0.90525600  0.94691880  0.74424050    -0.14000
H3079       H  0.92639843  0.99979797  0.72940264     0.12200
H3080       H  0.00659594  0.91553094  0.74983677     0.12200
H3081       H  0.95687367  0.87106389  0.76097102     0.12200
H3082       H  0.87717992  0.95605059  0.74262874     0.12200
C3083       C  0.63679891  0.83319240  0.67868561    -0.14000
C3084       C  0.67410093  0.82894658  0.67022020     0.08200
C3085       C  0.68535748  0.83283526  0.63354217    -0.14000
C3086       C  0.65991016  0.84121231  0.60604318    -0.14000
C3087       C  0.62307871  0.84736346  0.61512357     0.08200
C3088       C  0.61149369  0.84243806  0.65143648    -0.14000
H3089       H  0.62742083  0.82959873  0.70655665     0.12200
H3090       H  0.71398005  0.83003433  0.62641758     0.12200
H3091       H  0.66898319  0.84332794  0.57781155     0.12200
H3092       H  0.58276753  0.84515547  0.65856442     0.12200
C3093       C  0.74567635  0.94622055  0.67821015    -0.14000
C3094       C  0.75457775  0.90966458  0.67015405     0.08200
C3095       C  0.75572931  0.89858971  0.63328362    -0.14000
C3096       C  0.74853136  0.92374564  0.60512327    -0.14000
C3097       C  0.73791222  0.95968385  0.61365509     0.08200
C3098       C  0.73715299  0.97094259  0.65029697    -0.14000
H3099       H  0.74441618  0.95531173  0.70630443     0.12200
H3100       H  0.76193023  0.87044218  0.62643611     0.12200
H3101       H  0.75050749  0.91504307  0.57678940     0.12200
H3102       H  0.73041418  0.49892805  0.65740484     0.12200
C3103       C  0.63715046  0.90456486  0.74365571    -0.14000
C3104       C  0.67391194  0.91233363  0.75203856     0.08200
C3105       C  0.68521776  0.94912807  0.75322410    -0.14000
C3106       C  0.66018225  0.97743116  0.74613272    -0.14000
C3107       C  0.62401475  0.96915403  0.73585441     0.08200
C3108       C  0.61250605  0.93259534  0.73535082    -0.14000
H3109       H  0.62767516  0.87662221  0.74317844     0.12200
H3110       H  0.71339842  0.95581799  0.75964794     0.12200
H3111       H  0.66909631  0.00567976  0.74815136     0.12200
H3112       H  0.58422119  0.92578634  0.72926198     0.12200
C3113       C  0.65236196  0.84355567  0.97235529    -0.14000
C3114       C  0.61600384  0.84822566  0.96091456     0.08200
C3115       C  0.60677967  0.84200201  0.92412363    -0.14000
C3116       C  0.63417085  0.83379430  0.89855524    -0.14000
C3117       C  0.67086175  0.83004681  0.90969281     0.08200
C3118       C  0.67949016  0.83438618  0.94694460    -0.14000
H3119       H  0.65959877  0.84630412  0.00105722     0.12200
H3120       H  0.57850997  0.84391968  0.91518193     0.12200
H3121       H  0.62692731  0.83087238  0.86997052     0.12200
H3122       H  0.70736422  0.83077902  0.95621929     0.12200
C3123       C  0.63432384  0.89885936  0.82756743    -0.14000
C3124       C  0.67112930  0.91018896  0.82853351     0.08200
C3125       C  0.67905260  0.94687532  0.83701266    -0.14000
C3126       C  0.65104423  0.97147531  0.84536341    -0.14000
C3127       C  0.61447379  0.95989871  0.84505288     0.08200
C3128       C  0.60608027  0.92383012  0.83477655    -0.14000
H3129       H  0.62759967  0.87062579  0.82160461     0.12200
H3130       H  0.70711322  0.95614697  0.83817512     0.12200
H3131       H  0.65759897  0.49956527  0.85235668     0.12200
H3132       H  0.57779949  0.91487642  0.83311506     0.12200
C3133       C  0.75378596  0.94976157  0.89859204    -0.14000
C3134       C  0.75298001  0.91289531  0.90977720     0.08200
C3135       C  0.74493039  0.90487951  0.94659795    -0.14000
C3136       C  0.73661587  0.93271609  0.97142740    -0.14000
C3137       C  0.73670649  0.96934133  0.96003295     0.08200
C3138       C  0.74662153  0.97787572  0.92378294    -0.14000
H3139       H  0.75988441  0.95665409  0.87036330     0.12200
H3140       H  0.74486106  0.87689658  0.95600986     0.12200
H3141       H  0.73019408  0.92587154  0.49978191     0.12200
H3142       H  0.74870940  0.50619357  0.91530656     0.12200
C3143       C  0.68466326  0.63347027  0.82986373    -0.14000
C3144       C  0.67341160  0.67028811  0.83062018     0.08200
C3145       C  0.63656857  0.67812318  0.83862549    -0.14000
C3146       C  0.61183619  0.65016056  0.84706846    -0.14000
C3147       C  0.62334019  0.61359332  0.84710422     0.08200
C3148       C  0.65956354  0.60523482  0.83711852    -0.14000
H3149       H  0.71290091  0.62671033  0.82379526     0.12200
H3150       H  0.62711890  0.70607852  0.83876714     0.12200
H3151       H  0.58351123  0.65702274  0.85289603     0.12200
H3152       H  0.66848773  0.57696996  0.83549721     0.12200
C3153       C  0.75404841  0.68430344  0.95028306    -0.14000
C3154       C  0.75344722  0.67312859  0.91342551     0.08200
C3155       C  0.74494093  0.63647135  0.90537063    -0.14000
C3156       C  0.73647446  0.61168945  0.93327578    -0.14000
C3157       C  0.73661747  0.62305238  0.96990022     0.08200
C3158       C  0.74662688  0.65917581  0.97843055    -0.14000
H3159       H  0.75999699  0.71250284  0.95713460     0.12200
H3160       H  0.74403383  0.62730935  0.87727657     0.12200
H3161       H  0.73034818  0.58347718  0.92632287     0.12200
H3162       H  0.74995777  0.66777980  0.50658004     0.12200
C3163       C  0.68437091  0.75062907  0.94914398    -0.14000
C3164       C  0.67307834  0.75383574  0.91243984     0.08200
C3165       C  0.63576957  0.74943555  0.90405051    -0.14000
C3166       C  0.61047192  0.74070672  0.93149644    -0.14000
C3167       C  0.62211372  0.73653328  0.96788055     0.08200
C3168       C  0.65893959  0.74287779  0.97680911    -0.14000
H3169       H  0.71299095  0.75363098  0.95619096     0.12200
H3170       H  0.62638101  0.75251256  0.87613112     0.12200
H3171       H  0.58174581  0.73777116  0.92445938     0.12200
H3172       H  0.66876711  0.73900600  0.50532249     0.12200
C3173       C  0.83631560  0.60625601  0.92544068    -0.14000
C3174       C  0.84729139  0.61449152  0.96139495     0.08200
C3175       C  0.84789729  0.65099996  0.97298013    -0.14000
C3176       C  0.83900647  0.67905590  0.94852483    -0.14000
C3177       C  0.83015057  0.67131147  0.91185868     0.08200
C3178       C  0.82876630  0.63456745  0.90055791    -0.14000
H3179       H  0.83420903  0.57802392  0.91653666     0.12200
H3180       H  0.85377155  0.65756533  0.50118354     0.12200
H3181       H  0.83986306  0.70701958  0.95791812     0.12200
H3182       H  0.82213055  0.62794592  0.87240091     0.12200
C3183       C  0.90494435  0.63624708  0.84113636    -0.14000
C3184       C  0.91300972  0.67277472  0.83189316     0.08200
C3185       C  0.94991483  0.68371188  0.83013862    -0.14000
C3186       C  0.97807016  0.65841137  0.83673918    -0.14000
C3187       C  0.96960488  0.62242371  0.84743560     0.08200
C3188       C  0.93289933  0.61136336  0.84906389    -0.14000
H3189       H  0.87684454  0.62724574  0.84300617     0.12200
H3190       H  0.95682281  0.71181588  0.82368509     0.12200
H3191       H  0.00638959  0.66703322  0.83416935     0.12200
H3192       H  0.92590037  0.58329138  0.85586824     0.12200
C3193       C  0.94968629  0.75006390  0.89996431    -0.14000
C3194       C  0.91310910  0.75425473  0.91137724     0.08200
C3195       C  0.90490114  0.75065268  0.94884810    -0.14000
C3196       C  0.93233723  0.74186376  0.97416816    -0.14000
C3197       C  0.96853286  0.73654655  0.96240885     0.08200
C3198       C  0.97732976  0.74202351  0.92537487    -0.14000
H3199       H  0.95662701  0.75239083  0.87123974     0.12200
H3200       H  0.87708238  0.75424655  0.95834931     0.12200
H3201       H  0.92552870  0.73815708  0.50289643     0.12200
H3202       H  0.50501967  0.73991024  0.91681180     0.12200
C3203       C  0.83838379  0.94769475  0.90396457    -0.14000
C3204       C  0.82953895  0.91108155  0.91207638     0.08200
C3205       C  0.82833706  0.89997277  0.94896769    -0.14000
C3206       C  0.83563093  0.92502655  0.97709132    -0.14000
C3207       C  0.84630169  0.96098613  0.96856579     0.08200
C3208       C  0.84690972  0.97237906  0.93188926    -0.14000
H3209       H  0.83976215  0.95682504  0.87583923     0.12200
H3210       H  0.82200957  0.87183734  0.95586821     0.12200
H3211       H  0.83369356  0.91620931  0.00542564     0.12200
H3212       H  0.85355970  0.00049118  0.92490719     0.12200
C3213       C  0.89917810  0.83525275  0.94995059    -0.14000
C3214       C  0.91027655  0.83070014  0.91331044     0.08200
C3215       C  0.94763511  0.83423960  0.90472553    -0.14000
C3216       C  0.97320693  0.84306082  0.93187115    -0.14000
C3217       C  0.96180861  0.84855973  0.96815769     0.08200
C3218       C  0.92483336  0.84341875  0.97730983    -0.14000
H3219       H  0.87055283  0.83293132  0.95719548     0.12200
H3220       H  0.95689137  0.83031056  0.87687109     0.12200
H3221       H  0.50192581  0.84478685  0.92421883     0.12200
H3222       H  0.91583659  0.84600152  0.00551715     0.12200
C3223       C  0.94714166  0.90452025  0.83806125    -0.14000
C3224       C  0.91042691  0.91254268  0.82979470     0.08200
C3225       C  0.89925013  0.94935071  0.82855804    -0.14000
C3226       C  0.92437553  0.97749150  0.83570450    -0.14000
C3227       C  0.96047460  0.96897746  0.84597137     0.08200
C3228       C  0.97190480  0.93240114  0.84632451    -0.14000
H3229       H  0.95641697  0.87649867  0.83865385     0.12200
H3230       H  0.87104954  0.95615035  0.82232118     0.12200
H3231       H  0.91555996  0.00578500  0.83387666     0.12200
H3232       H  0.50005340  0.92528665  0.85256888     0.12200
loop_ 
_geom_bond_atom_site_label_1 
_geom_bond_atom_site_label_2 
_geom_bond_distance 
_geom_bond_site_symmetry_2 
_ccdc_geom_bond_type 
C1            H2   1.067       .  S
C1            C7   1.580       .  S
C1            C6   1.582       .  S
C1            C5   1.580       .  S
C3            H4   1.118       .  S
C3            C9   1.508       .  S
C3            C8   1.511       .  S
C3           C10   1.509       .  S
C5            C8   1.387       .  D
C5           C56   1.549       .  S
C6            C9   1.388       .  D
C6           C38   1.547       .  S
C7           C10   1.387       .  D
C7           C19   1.548       .  S
C8          C396   1.473       .  S
C9          C376   1.473       .  S
C10         C386   1.472       .  S
C11          H12   1.118       .  S
C11          C17   1.509       .  S
C11          C16   1.509       .  S
C11          C15   1.511       .  S
C13          H14   1.067       .  S
C13          C19   1.579       .  S
C13          C18   1.579       .  S
C13          C20   1.581       .  S
C15          C18   1.388       .  D
C15         C349   1.474       .  S
C16          C19   1.388       .  D
C16         C366   1.473       .  S
C17          C20   1.389       .  D
C17         C356   1.475       .  S
C18          C26   1.549       .  S
C20          C75   1.548       .  S
C21          H22   1.067       .  S
C21          C27   1.580       .  S
C21          C26   1.581       .  S
C21          C25   1.580       .  S
C23          H24   1.118       .  S
C23          C29   1.509       .  S
C23          C28   1.511       .  S
C23          C30   1.509       .  S
C25          C28   1.389       .  D
C25          C70   1.549       .  S
C26          C29   1.388       .  D
C27          C30   1.388       .  D
C27          C39   1.548       .  S
C28         C316   1.477       .  S
C29         C326   1.472       .  S
C30         C336   1.474       .  S
C31          H32   1.118       .  S
C31          C37   1.508       .  S
C31          C36   1.509       .  S
C31          C35   1.510       .  S
C33          H34   1.067       .  S
C33          C39   1.580       .  S
C33          C38   1.579       .  S
C33          C40   1.581       .  S
C35          C38   1.388       .  D
C35         C306   1.475       .  S
C36          C39   1.387       .  D
C36         C289   1.471       .  S
C37          C40   1.388       .  D
C37         C296   1.472       .  S
C40          C45   1.548       .  S
C41          H42   1.067       .  S
C41          C47   1.580       .  S
C41          C46   1.580       .  S
C41          C45   1.580       .  S
C43          H44   1.118       .  S
C43          C49   1.509       .  S
C43          C48   1.510       .  S
C43          C50   1.510       .  S
C45          C48   1.388       .  D
C46          C49   1.389       .  D
C46          C55   1.549       .  S
C47          C50   1.389       .  D
C47          C69   1.549       .  S
C48         C276   1.476       .  S
C49         C266   1.472       .  S
C50         C256   1.475       .  S
C51          H52   1.067       .  S
C51          C57   1.580       .  S
C51          C56   1.581       .  S
C51          C55   1.579       .  S
C53          H54   1.118       .  S
C53          C59   1.509       .  S
C53          C58   1.511       .  S
C53          C60   1.509       .  S
C55          C58   1.387       .  D
C56          C59   1.390       .  D
C57          C60   1.388       .  D
C57          C77   1.548       .  S
C58         C236   1.473       .  S
C59         C249   1.475       .  S
C60         C226   1.474       .  S
C61          H62   1.118       .  S
C61          C67   1.510       .  S
C61          C66   1.510       .  S
C61          C65   1.511       .  S
C63          H64   1.067       .  S
C63          C69   1.581       .  S
C63          C68   1.581       .  S
C63          C70   1.582       .  S
C65          C68   1.388       .  D
C65         C206   1.476       .  S
C66          C69   1.386       .  D
C66         C196   1.471       .  S
C67          C70   1.388       .  D
C67         C216   1.472       .  S
C68          C76   1.548       .  S
C71          H72   1.066       .  S
C71          C77   1.580       .  S
C71          C76   1.582       .  S
C71          C75   1.580       .  S
C73          H74   1.118       .  S
C73          C79   1.509       .  S
C73          C78   1.511       .  S
C73          C80   1.510       .  S
C75          C78   1.387       .  D
C76          C79   1.389       .  D
C77          C80   1.387       .  D
C78         C186   1.473       .  S
C79         C166   1.475       .  S
C80         C176   1.471       .  S
O81          V89   1.889   1_655  S
O81        C2515   1.256   1_545  A
O82          V89   1.890       .  S
O82          C92   1.256       .  A
O83          V89   1.890   1_565  S
O83         C901   1.256       .  A
O84          V89   1.890       .  S
O84        C1710   1.257   1_455  A
O85          V90   1.918       .  S
O85        C1710   1.270   1_455  A
O86          V90   1.918       .  S
O86         C901   1.270   1_545  A
O87          V90   1.920       .  S
O87          C92   1.270       .  A
O88          V90   1.918       .  S
O88        C2515   1.270   1_445  A
V89          V90   2.044       .  T
C91        O2505   1.256       .  A
C91        O2512   1.270       .  A
C91         C399   1.464       .  S
C92         C319   1.466       .  S
C93         O891   1.256       .  A
C93         O894   1.270       .  A
C93         C299   1.463       .  S
C94        O1700   1.257       .  A
C94        O1701   1.270       .  A
C94         C359   1.465       .  S
O95         V103   1.919       .  S
O95        C2529   1.270   1_445  A
O96         V103   1.919       .  S
O96         C106   1.270       .  A
O97         V103   1.920       .  S
O97         C915   1.270   1_545  A
O98         V103   1.919       .  S
O98        C1724   1.270   1_455  A
O99         V104   1.888   1_655  S
O99        C1724   1.256       .  A
O100        V104   1.890       .  S
O100        C915   1.257   1_545  A
O101        V104   1.889       .  S
O101        C106   1.256       .  A
O102        V104   1.889   1_565  S
O102       C2529   1.257   1_455  A
V103        V104   2.044       .  T
C105       O2519   1.270       .  A
C105       O2526   1.257       .  A
C105        C246   1.466       .  S
C106        C219   1.464       .  S
C107        O905   1.271       .  A
C107        O908   1.256       .  A
C107        C279   1.466       .  S
C108       O1714   1.270       .  A
C108       O1715   1.256       .  A
C108        C189   1.463       .  S
O109        V117   1.888       .  S
O109        C927   1.256   1_545  A
O110        V117   1.886   1_556  S
O110        C524   1.256       .  A
O111        V117   1.889   1_565  S
O111       C1333   1.256   1_554  A
O112        V117   1.889       .  S
O112        C122   1.257       .  A
O113        V118   1.920       .  S
O113        C122   1.270       .  A
O114        V118   1.920       .  S
O114       C1333   1.270   1_544  A
O115        V118   1.918       .  S
O115        C524   1.270   1_554  A
O116        V118   1.917       .  S
O116        C927   1.270   1_545  A
V117        V118   2.046       .  T
C119        O917   1.256       .  A
C119        O924   1.270       .  A
C119        C239   1.463       .  S
C120        O514   1.256       .  A
C120        O519   1.270       .  A
C120        C346   1.463       .  S
C121       O1323   1.257       .  A
C121       O1326   1.270       .  A
C121        C379   1.464       .  S
C122        C169   1.466       .  S
O123        V131   1.886       .  S
O123        C133   1.256       .  A
O124        V131   1.885   1_655  S
O124       C2154   1.255   1_554  A
O125        V131   1.884   1_556  S
O125        C539   1.255       .  A
O126        V131   1.883       .  S
O126       C1752   1.255   1_455  A
O127        V132   1.922       .  S
O127       C1752   1.270   1_455  A
O128        V132   1.920       .  S
O128        C539   1.270   1_554  A
O129        V132   1.922       .  S
O129       C2154   1.270   1_454  A
O130        V132   1.922       .  S
O130        C133   1.270       .  A
V131        V132   2.054       .  T
C133        C259   1.466       .  S
C134       O2144   1.255       .  A
C134       O2149   1.270       .  A
C134        C389   1.462       .  S
C135        O529   1.255       .  A
C135        O532   1.270       .  A
C135        C286   1.462       .  S
C136       O1742   1.255       .  A
C136       O1743   1.270       .  A
C136        C229   1.464       .  S
O137        V145   1.917       .  S
O137        C955   1.270   1_545  A
O138        V145   1.918       .  S
O138        C552   1.270   1_554  A
O139        V145   1.921       .  S
O139       C1361   1.271   1_544  A
O140        V145   1.921       .  S
O140        C150   1.271       .  A
O141        V146   1.890       .  S
O141        C150   1.256       .  A
O142        V146   1.891   1_556  S
O142       C1361   1.257   1_545  A
O143        V146   1.888       .  S
O143        C552   1.256   1_554  A
O144        V146   1.888   1_565  S
O144        C955   1.256       .  A
V145        V146   2.046       .  T
C147        O945   1.270       .  A
C147        O952   1.256       .  A
C147        C269   1.463       .  S
C148        O542   1.270       .  A
C148        O547   1.256       .  A
C148        C329   1.462       .  S
C149       O1351   1.270       .  A
C149       O1354   1.257       .  A
C149        C309   1.466       .  S
C150        C209   1.466       .  S
O151        V159   1.884       .  S
O151        C565   1.256   1_554  A
O152        V159   1.882   1_655  S
O152       C1778   1.255       .  A
O153        V159   1.884       .  S
O153        C163   1.255       .  A
O154        V159   1.884   1_556  S
O154       C2184   1.255   1_455  A
O155        V160   1.923       .  S
O155       C2184   1.270   1_454  A
O156        V160   1.921       .  S
O156        C163   1.270       .  A
O157        V160   1.920       .  S
O157       C1778   1.269   1_455  A
O158        V160   1.920       .  S
O158        C565   1.270   1_554  A
V159        V160   2.053       .  T
C161        O555   1.256       .  A
C161        O562   1.270       .  A
C161        C339   1.464       .  S
C162       O1768   1.255       .  A
C162       O1773   1.269       .  A
C162        C179   1.462       .  S
C163        C199   1.463       .  S
C164       O2174   1.255       .  A
C164       O2175   1.269       .  A
C164        C369   1.463       .  S
C165        C166   1.405       .  A
C165        C170   1.396       .  A
C165        H171   1.078       .  S
C166        C167   1.404       .  A
C167        C168   1.401       .  A
C167        H172   1.081       .  S
C168        C169   1.403       .  A
C168        H173   1.083       .  S
C169        C170   1.399       .  A
C170        H174   1.084       .  S
C175        C176   1.404       .  A
C175        C180   1.398       .  A
C175        H181   1.080       .  S
C176        C177   1.403       .  A
C177        C178   1.397       .  A
C177        H182   1.080       .  S
C178        C179   1.401       .  A
C178       H1799   1.084       .  S
C179        C180   1.400       .  A
C180        H184   1.083       .  S
H183       C1794   1.084   1_455  S
C185        C186   1.404       .  A
C185        C190   1.401       .  A
C185        H191   1.082       .  S
C186        C187   1.404       .  A
C187        C188   1.394       .  A
C187        H192   1.077       .  S
C188        C189   1.398       .  A
C188        H193   1.084       .  S
C189        C190   1.403       .  A
C190        H194   1.083       .  S
C195        C196   1.404       .  A
C195        C200   1.398       .  A
C195        H201   1.080       .  S
C196        C197   1.403       .  A
C197        C198   1.397       .  A
C197        H202   1.079       .  S
C198        C199   1.401       .  A
C198        H203   1.083       .  S
C199        C200   1.401       .  A
C200        H204   1.083       .  S
C205        C206   1.405       .  A
C205        C210   1.402       .  A
C205        H211   1.082       .  S
C206        C207   1.404       .  A
C207        C208   1.395       .  A
C207        H212   1.077       .  S
C208        C209   1.399       .  A
C208        H213   1.084       .  S
C209        C210   1.404       .  A
C210        H214   1.083       .  S
C215        C216   1.405       .  A
C215        C220   1.394       .  A
C215        H221   1.078       .  S
C216        C217   1.404       .  A
C217        C218   1.401       .  A
C217        H222   1.081       .  S
C218        C219   1.403       .  A
C218        H223   1.083       .  S
C219        C220   1.398       .  A
C220        H224   1.084       .  S
C225        C226   1.405       .  A
C225        C230   1.399       .  A
C225        H231   1.080       .  S
C226        C227   1.403       .  A
C227        C228   1.397       .  A
C227        H232   1.080       .  S
C228        C229   1.401       .  A
C228        H233   1.084       .  S
C229        C230   1.401       .  A
C230       H1850   1.083       .  S
H234       C1846   1.083   1_455  S
C235        C236   1.404       .  A
C235        C240   1.394       .  A
C235        H241   1.077       .  S
C236        C237   1.404       .  A
C237        C238   1.400       .  A
C237        H242   1.082       .  S
C238        C239   1.403       .  A
C238        H243   1.083       .  S
C239        C240   1.398       .  A
C240        H244   1.084       .  S
C245        C246   1.399       .  A
C245        C250   1.395       .  A
C245        H251   1.084       .  S
C246        C247   1.403       .  A
C247        C248   1.401       .  A
C247        H252   1.083       .  S
C248        C249   1.405       .  A
C248        H253   1.081       .  S
C249        C250   1.405       .  A
C250        H254   1.078       .  S
C255        C256   1.404       .  A
C255        C260   1.398       .  A
C255        H261   1.080       .  S
C256        C257   1.405       .  A
C257        C258   1.400       .  A
C257        H262   1.080       .  S
C258        C259   1.401       .  A
C258        H263   1.083       .  S
C259        C260   1.401       .  A
C260        H264   1.084       .  S
C265        C266   1.405       .  A
C265        C270   1.394       .  A
C265        H271   1.078       .  S
C266        C267   1.404       .  A
C267        C268   1.400       .  A
C267        H272   1.081       .  S
C268        C269   1.403       .  A
C268        H273   1.083       .  S
C269        C270   1.398       .  A
C270       H1082   1.084       .  S
H274       C1078   1.084       .  S
C275        C276   1.404       .  A
C275        C280   1.395       .  A
C275        H281   1.077       .  S
C276        C277   1.405       .  A
C277        C278   1.402       .  A
C277        H282   1.082       .  S
C278        C279   1.404       .  A
C278        H283   1.083       .  S
C279        C280   1.398       .  A
C280        H284   1.084       .  S
C285        C286   1.400       .  A
C285        C290   1.396       .  A
C285        H291   1.084       .  S
C286        C287   1.401       .  A
C287        C288   1.399       .  A
C287        H292   1.083       .  S
C288        C289   1.405       .  A
C288        H293   1.080       .  S
C289        C290   1.403       .  A
C290        H294   1.080       .  S
C295        C296   1.404       .  A
C295        C300   1.400       .  A
C295        H301   1.081       .  S
C296        C297   1.404       .  A
C297        C298   1.394       .  A
C297        H302   1.078       .  S
C298        C299   1.398       .  A
C298       H1111   1.084       .  S
C299        C300   1.403       .  A
C300        H304   1.083       .  S
H303       C1106   1.084       .  S
C305        C306   1.405       .  A
C305        C310   1.402       .  A
C305        H311   1.082       .  S
C306        C307   1.404       .  A
C307        C308   1.394       .  A
C307        H312   1.077       .  S
C308        C309   1.398       .  A
C308        H717   1.084       .  S
C309        C310   1.404       .  A
C310       H1122   1.083       .  S
H313        C712   1.084       .  S
H314       C1118   1.083   1_545  S
C315        C316   1.405       .  A
C315        C320   1.403       .  A
C315        H321   1.082       .  S
C316        C317   1.404       .  A
C317        C318   1.395       .  A
C317        H322   1.077       .  S
C318        C319   1.398       .  A
C318        H323   1.084       .  S
C319        C320   1.404       .  A
C320        H324   1.083       .  S
C325        C326   1.404       .  A
C325        C330   1.400       .  A
C325        H331   1.081       .  S
C326        C327   1.405       .  A
C327        C328   1.394       .  A
C327        H332   1.078       .  S
C328        C329   1.398       .  A
C328        H333   1.084       .  S
C329        C330   1.403       .  A
C330        H738   1.083       .  S
H334        C734   1.083   1_554  S
C335        C336   1.405       .  A
C335        C340   1.399       .  A
C335        H341   1.080       .  S
C336        C337   1.403       .  A
C337        C338   1.397       .  A
C337        H342   1.080       .  S
C338        C339   1.401       .  A
C338        H343   1.084       .  S
C339        C340   1.401       .  A
C340        H748   1.083       .  S
H344        C744   1.083   1_554  S
C345        C346   1.403       .  A
C345        C350   1.401       .  A
C345        H351   1.083       .  S
C346        C347   1.398       .  A
C347        C348   1.394       .  A
C347        H756   1.084       .  S
C348        C349   1.404       .  A
C348        H353   1.077       .  S
C349        C350   1.404       .  A
C350        H354   1.082       .  S
H352        C751   1.084   1_554  S
C355        C356   1.405       .  A
C355        C360   1.395       .  A
C355        H361   1.078       .  S
C356        C357   1.405       .  A
C357        C358   1.401       .  A
C357        H362   1.081       .  S
C358        C359   1.403       .  A
C358        H363   1.083       .  S
C359        C360   1.399       .  A
C360        H364   1.084       .  S
C365        C366   1.405       .  A
C365        C370   1.399       .  A
C365        H371   1.080       .  S
C366        C367   1.403       .  A
C367        C368   1.397       .  A
C367        H372   1.079       .  S
C368        C369   1.400       .  A
C368        H777   1.084       .  S
C369        C370   1.401       .  A
C370       H1990   1.083       .  S
H373        C772   1.084   1_554  S
H374       C1986   1.083   1_455  S
C375        C376   1.405       .  A
C375        C380   1.395       .  A
C375        H381   1.079       .  S
C376        C377   1.404       .  A
C377        C378   1.400       .  A
C377        H382   1.081       .  S
C378        C379   1.403       .  A
C378        H383   1.083       .  S
C379        C380   1.399       .  A
C380        H384   1.084       .  S
C385        C386   1.405       .  A
C385        C390   1.399       .  A
C385        H391   1.080       .  S
C386        C387   1.403       .  A
C387        C388   1.396       .  A
C387        H392   1.079       .  S
C388        C389   1.400       .  A
C388       H2009   1.084       .  S
C389        C390   1.401       .  A
C390        H394   1.083       .  S
H393       C2004   1.084   1_455  S
C395        C396   1.403       .  A
C395        C400   1.393       .  A
C395        H401   1.076       .  S
C396        C397   1.404       .  A
C397        C398   1.401       .  A
C397        H402   1.082       .  S
C398        C399   1.404       .  A
C398        H403   1.083       .  S
C399        C400   1.398       .  A
C400       H2020   1.084       .  S
H404       C2016   1.084   1_455  S
C405        H406   1.067       .  S
C405        C411   1.580       .  S
C405        C410   1.582       .  S
C405        C409   1.579       .  S
C407        H408   1.118       .  S
C407        C413   1.508       .  S
C407        C412   1.511       .  S
C407        C414   1.510       .  S
C409        C412   1.386       .  D
C409        C460   1.548       .  S
C410        C413   1.388       .  D
C410        C442   1.547       .  S
C411        C414   1.388       .  D
C411        C423   1.548       .  S
C412        C800   1.471       .  S
C413        C780   1.473       .  S
C414        C790   1.474       .  S
C415        H416   1.118       .  S
C415        C421   1.510       .  S
C415        C420   1.509       .  S
C415        C419   1.512       .  S
C417        H418   1.066       .  S
C417        C423   1.581       .  S
C417        C422   1.579       .  S
C417        C424   1.581       .  S
C419        C422   1.388       .  D
C419        C753   1.473       .  S
C420        C423   1.388       .  D
C420        C770   1.475       .  S
C421        C424   1.389       .  D
C421        C760   1.475       .  S
C422        C430   1.550       .  S
C424        C479   1.549       .  S
C425        H426   1.067       .  S
C425        C431   1.579       .  S
C425        C430   1.581       .  S
C425        C429   1.580       .  S
C427        H428   1.118       .  S
C427        C433   1.510       .  S
C427        C432   1.510       .  S
C427        C434   1.510       .  S
C429        C432   1.389       .  D
C429        C474   1.547       .  S
C430        C433   1.388       .  D
C431        C434   1.387       .  D
C431        C443   1.549       .  S
C432        C720   1.477       .  S
C433        C730   1.473       .  S
C434        C740   1.472       .  S
C435        H436   1.118       .  S
C435        C441   1.508       .  S
C435        C440   1.510       .  S
C435        C439   1.510       .  S
C437        H438   1.067       .  S
C437        C443   1.579       .  S
C437        C442   1.580       .  S
C437        C444   1.581       .  S
C439        C442   1.389       .  D
C439        C710   1.477       .  S
C440        C443   1.387       .  D
C440        C693   1.471       .  S
C441        C444   1.387       .  D
C441        C700   1.471       .  S
C444        C449   1.547       .  S
C445        H446   1.067       .  S
C445        C451   1.578       .  S
C445        C450   1.580       .  S
C445        C449   1.579       .  S
C447        H448   1.118       .  S
C447        C453   1.509       .  S
C447        C452   1.510       .  S
C447        C454   1.510       .  S
C449        C452   1.388       .  D
C450        C453   1.389       .  D
C450        C459   1.548       .  S
C451        C454   1.388       .  D
C451        C473   1.548       .  S
C452        C680   1.476       .  S
C453        C670   1.472       .  S
C454        C660   1.472       .  S
C455        H456   1.067       .  S
C455        C461   1.580       .  S
C455        C460   1.581       .  S
C455        C459   1.579       .  S
C457        H458   1.118       .  S
C457        C463   1.509       .  S
C457        C462   1.511       .  S
C457        C464   1.509       .  S
C459        C462   1.387       .  D
C460        C463   1.390       .  D
C461        C464   1.388       .  D
C461        C481   1.549       .  S
C462        C640   1.472       .  S
C463        C653   1.474       .  S
C464        C630   1.474       .  S
C465        H466   1.118       .  S
C465        C471   1.508       .  S
C465        C470   1.509       .  S
C465        C469   1.511       .  S
C467        H468   1.067       .  S
C467        C473   1.580       .  S
C467        C472   1.580       .  S
C467        C474   1.581       .  S
C469        C472   1.389       .  D
C469        C610   1.476       .  S
C470        C473   1.386       .  D
C470        C600   1.471       .  S
C471        C474   1.387       .  D
C471        C620   1.471       .  S
C472        C480   1.548       .  S
C475        H476   1.067       .  S
C475        C481   1.580       .  S
C475        C480   1.582       .  S
C475        C479   1.580       .  S
C477        H478   1.118       .  S
C477        C483   1.509       .  S
C477        C482   1.511       .  S
C477        C484   1.510       .  S
C479        C482   1.388       .  D
C480        C483   1.388       .  D
C481        C484   1.387       .  D
C482        C590   1.474       .  S
C483        C570   1.474       .  S
C484        C580   1.472       .  S
O485        V493   1.889   1_655  S
O485       C2919   1.256   1_545  A
O486        V493   1.889       .  S
O486        C496   1.256       .  A
O487        V493   1.889   1_565  S
O487       C1305   1.256       .  A
O488        V493   1.890       .  S
O488       C2114   1.257   1_455  A
O489        V494   1.919       .  S
O489       C2114   1.270   1_455  A
O490        V494   1.918       .  S
O490       C1305   1.270   1_545  A
O491        V494   1.920       .  S
O491        C496   1.270       .  A
O492        V494   1.918       .  S
O492       C2919   1.270   1_445  A
V493        V494   2.045       .  T
C495       O2909   1.256       .  A
C495       O2916   1.270       .  A
C495        C803   1.463       .  S
C496        C723   1.466       .  S
C497       O1295   1.256       .  A
C497       O1298   1.270       .  A
C497        C703   1.463       .  S
C498       O2104   1.257       .  A
C498       O2105   1.270       .  A
C498        C763   1.465       .  S
O499        V507   1.919       .  S
O499       C2933   1.270   1_445  A
O500        V507   1.918       .  S
O500        C510   1.270       .  A
O501        V507   1.919       .  S
O501       C1319   1.270   1_545  A
O502        V507   1.919       .  S
O502       C2128   1.270   1_455  A
O503        V508   1.889   1_655  S
O503       C2128   1.256       .  A
O504        V508   1.891       .  S
O504       C1319   1.257   1_545  A
O505        V508   1.889       .  S
O505        C510   1.256       .  A
O506        V508   1.890   1_565  S
O506       C2933   1.257   1_455  A
V507        V508   2.044       .  T
C509       O2923   1.270       .  A
C509       O2930   1.257       .  A
C509        C650   1.465       .  S
C510        C623   1.463       .  S
C511       O1309   1.270       .  A
C511       O1312   1.256       .  A
C511        C683   1.465       .  S
C512       O2118   1.270       .  A
C512       O2119   1.256       .  A
C512        C593   1.465       .  S
O513        V521   1.887       .  S
O513       C1331   1.256   1_545  A
O514        V521   1.887       .  S
O515        V521   1.889   1_565  S
O515        C929   1.256       .  A
O516        V521   1.889       .  S
O516        C526   1.257       .  A
O517        V522   1.920       .  S
O517        C526   1.270       .  A
O518        V522   1.919       .  S
O518        C929   1.270   1_545  A
O519        V522   1.918       .  S
O520        V522   1.916       .  S
O520       C1331   1.269   1_545  A
V521        V522   2.045       .  T
C523       O1321   1.256       .  A
C523       O1328   1.270       .  A
C523        C643   1.462       .  S
C524        C750   1.463       .  S
C525        O919   1.256   1_556  A
C525        O922   1.270   1_556  A
C525        C783   1.465       .  S
C526        C573   1.465       .  S
O527        V535   1.883       .  S
O527        C537   1.255       .  A
O528        V535   1.883   1_655  S
O528       C1750   1.255       .  A
O529        V535   1.884       .  S
O530        V535   1.884       .  S
O530       C2156   1.255   1_455  A
O531        V536   1.921       .  S
O531       C2156   1.270   1_455  A
O532        V536   1.920       .  S
O533        V536   1.919       .  S
O533       C1750   1.269   1_455  A
O534        V536   1.919       .  S
O534        C537   1.270       .  A
V535        V536   2.055       .  T
C537        C663   1.462       .  S
C538       O1740   1.255   1_556  A
C538       O1745   1.270   1_556  A
C538        C793   1.464       .  S
C539        C690   1.462       .  S
C540       O2146   1.255       .  A
C540       O2147   1.270       .  A
C540        C633   1.464       .  S
O541        V549   1.916       .  S
O541       C1359   1.270   1_545  A
O542        V549   1.917       .  S
O543        V549   1.919       .  S
O543        C957   1.270   1_545  A
O544        V549   1.920       .  S
O544        C554   1.270       .  A
O545        V550   1.891       .  S
O545        C554   1.257       .  A
O546        V550   1.891       .  S
O546        C957   1.257   1_545  A
O547        V550   1.888       .  S
O548        V550   1.887   1_565  S
O548       C1359   1.256       .  A
V549        V550   2.045       .  T
C551       O1349   1.270       .  A
C551       O1356   1.256       .  A
C551        C673   1.462       .  S
C552        C733   1.463       .  S
C553        O947   1.271   1_556  A
C553        O950   1.257       .  A
C553        C713   1.467       .  S
C554        C613   1.466       .  S
O555        V563   1.885       .  S
O556        V563   1.883   1_655  S
O556       C2182   1.255       .  A
O557        V563   1.883       .  S
O557        C567   1.255       .  A
O558        V563   1.884       .  S
O558       C1780   1.255   1_455  A
O559        V564   1.920       .  S
O559       C1780   1.270   1_455  A
O560        V564   1.919       .  S
O560        C567   1.269       .  A
O561        V564   1.920       .  S
O561       C2182   1.270   1_455  A
O562        V564   1.920       .  S
V563        V564   2.056       .  T
C565        C743   1.463       .  S
C566       O2172   1.255       .  A
C566       O2177   1.270       .  A
C566        C583   1.463       .  S
C567        C603   1.461       .  S
C568       O1770   1.255       .  A
C568       O1771   1.270   1_556  A
C568        C773   1.465       .  S
C569        C570   1.405       .  A
C569        C574   1.396       .  A
C569        H575   1.078       .  S
C570        C571   1.404       .  A
C571        C572   1.400       .  A
C571        H576   1.081       .  S
C572        C573   1.403       .  A
C572        H577   1.083       .  S
C573        C574   1.399       .  A
C574        H578   1.084       .  S
C579        C580   1.405       .  A
C579        C584   1.399       .  A
C579        H585   1.080       .  S
C580        C581   1.403       .  A
C581        C582   1.397       .  A
C581        H586   1.079       .  S
C582        C583   1.401       .  A
C582       H2203   1.084       .  S
C583        C584   1.401       .  A
C584        H588   1.083       .  S
H587       C2198   1.084   1_455  S
C589        C590   1.405       .  A
C589        C594   1.402       .  A
C589        H595   1.082       .  S
C590        C591   1.404       .  A
C591        C592   1.394       .  A
C591        H596   1.077       .  S
C592        C593   1.398       .  A
C592        H597   1.084       .  S
C593        C594   1.404       .  A
C594        H598   1.083       .  S
C599        C600   1.405       .  A
C599        C604   1.399       .  A
C599        H605   1.080       .  S
C600        C601   1.402       .  A
C601        C602   1.396       .  A
C601        H606   1.079       .  S
C602        C603   1.400       .  A
C602        H607   1.084       .  S
C603        C604   1.401       .  A
C604        H608   1.083       .  S
C609        C610   1.405       .  A
C609        C614   1.403       .  A
C609        H615   1.082       .  S
C610        C611   1.404       .  A
C611        C612   1.395       .  A
C611        H616   1.077       .  S
C612        C613   1.398       .  A
C612        H617   1.084       .  S
C613        C614   1.404       .  A
C614        H618   1.083       .  S
C619        C620   1.404       .  A
C619        C624   1.394       .  A
C619        H625   1.079       .  S
C620        C621   1.404       .  A
C621        C622   1.400       .  A
C621        H626   1.081       .  S
C622        C623   1.402       .  A
C622        H627   1.083       .  S
C623        C624   1.399       .  A
C624        H628   1.084       .  S
C629        C630   1.405       .  A
C629        C634   1.400       .  A
C629        H635   1.080       .  S
C630        C631   1.403       .  A
C631        C632   1.397       .  A
C631        H636   1.080       .  S
C632        C633   1.401       .  A
C632        H637   1.084       .  S
C633        C634   1.401       .  A
C634       H2254   1.083       .  S
H638       C2250   1.083   1_455  S
C639        C640   1.404       .  A
C639        C644   1.393       .  A
C639        H645   1.077       .  S
C640        C641   1.404       .  A
C641        C642   1.400       .  A
C641        H646   1.082       .  S
C642        C643   1.403       .  A
C642        H647   1.083       .  S
C643        C644   1.398       .  A
C644        H648   1.084       .  S
C649        C650   1.399       .  A
C649        C654   1.395       .  A
C649        H655   1.084       .  S
C650        C651   1.403       .  A
C651        C652   1.401       .  A
C651        H656   1.083       .  S
C652        C653   1.405       .  A
C652        H657   1.081       .  S
C653        C654   1.405       .  A
C654        H658   1.078       .  S
C659        C660   1.403       .  A
C659        C664   1.396       .  A
C659        H665   1.079       .  S
C660        C661   1.405       .  A
C661        C662   1.399       .  A
C661        H666   1.080       .  S
C662        C663   1.401       .  A
C662        H667   1.083       .  S
C663        C664   1.400       .  A
C664        H668   1.084       .  S
C669        C670   1.405       .  A
C669        C674   1.394       .  A
C669        H675   1.078       .  S
C670        C671   1.404       .  A
C671        C672   1.400       .  A
C671        H676   1.081       .  S
C672        C673   1.403       .  A
C672        H677   1.083       .  S
C673        C674   1.398       .  A
C674       H1486   1.084       .  S
H678       C1482   1.084       .  S
C679        C680   1.404       .  A
C679        C684   1.394       .  A
C679        H685   1.076       .  S
C680        C681   1.405       .  A
C681        C682   1.402       .  A
C681        H686   1.082       .  S
C682        C683   1.404       .  A
C682        H687   1.083       .  S
C683        C684   1.398       .  A
C684        H688   1.084       .  S
C689        C690   1.400       .  A
C689        C694   1.396       .  A
C689        H695   1.084   1_556  S
C690        C691   1.401       .  A
C691        C692   1.399       .  A
C691        H696   1.083       .  S
C692        C693   1.405       .  A
C692        H697   1.080       .  S
C693        C694   1.403       .  A
C694        H698   1.079       .  S
C699        C700   1.404       .  A
C699        C704   1.400       .  A
C699        H705   1.081       .  S
C700        C701   1.404       .  A
C701        C702   1.394       .  A
C701        H706   1.078       .  S
C702        C703   1.398       .  A
C702       H1515   1.084       .  S
C703        C704   1.403       .  A
C704        H708   1.083       .  S
H707       C1510   1.084       .  S
C709        C710   1.405       .  A
C709        C714   1.402       .  A
C709        H715   1.082       .  S
C710        C711   1.404       .  A
C711        C712   1.395       .  A
C711        H716   1.076       .  S
C712        C713   1.399       .  A
C713        C714   1.404       .  A
C714       H1526   1.083       .  S
H718       C1522   1.083   1_545  S
C719        C720   1.405       .  A
C719        C724   1.402       .  A
C719        H725   1.082       .  S
C720        C721   1.404       .  A
C721        C722   1.395       .  A
C721        H726   1.077       .  S
C722        C723   1.399       .  A
C722        H727   1.084       .  S
C723        C724   1.404       .  A
C724        H728   1.083       .  S
C729        C730   1.404       .  A
C729        C734   1.401       .  A
C729        H735   1.081       .  S
C730        C731   1.405       .  A
C731        C732   1.394       .  A
C731        H736   1.078       .  S
C732        C733   1.398       .  A
C732        H737   1.084       .  S
C733        C734   1.403       .  A
C739        C740   1.404       .  A
C739        C744   1.398       .  A
C739        H745   1.080       .  S
C740        C741   1.403       .  A
C741        C742   1.397       .  A
C741        H746   1.079       .  S
C742        C743   1.400       .  A
C742        H747   1.084       .  S
C743        C744   1.401       .  A
C749        C750   1.403       .  A
C749        C754   1.400       .  A
C749        H755   1.083       .  S
C750        C751   1.398       .  A
C751        C752   1.394       .  A
C752        C753   1.404       .  A
C752        H757   1.077       .  S
C753        C754   1.404       .  A
C754        H758   1.082       .  S
C759        C760   1.405       .  A
C759        C764   1.395       .  A
C759        H765   1.078       .  S
C760        C761   1.405       .  A
C761        C762   1.401       .  A
C761        H766   1.081       .  S
C762        C763   1.403       .  A
C762        H767   1.083       .  S
C763        C764   1.399       .  A
C764        H768   1.084       .  S
C769        C770   1.405       .  A
C769        C774   1.399       .  A
C769        H775   1.080       .  S
C770        C771   1.404       .  A
C771        C772   1.398       .  A
C771        H776   1.080       .  S
C772        C773   1.401       .  A
C773        C774   1.401       .  A
C774       H2394   1.083       .  S
H778       C2390   1.083   1_455  S
C779        C780   1.405       .  A
C779        C784   1.395       .  A
C779        H785   1.078       .  S
C780        C781   1.404       .  A
C781        C782   1.400       .  A
C781        H786   1.081       .  S
C782        C783   1.403       .  A
C782        H787   1.083   1_556  S
C783        C784   1.399       .  A
C784        H788   1.084       .  S
C789        C790   1.405       .  A
C789        C794   1.399       .  A
C789        H795   1.080       .  S
C790        C791   1.403       .  A
C791        C792   1.397       .  A
C791        H796   1.080       .  S
C792        C793   1.401       .  A
C792       H2413   1.083       .  S
C793        C794   1.401       .  A
C794        H798   1.083   1_556  S
H797       C2408   1.083   1_455  S
C799        C800   1.403       .  A
C799        C804   1.393       .  A
C799        H805   1.077       .  S
C800        C801   1.404       .  A
C801        C802   1.401       .  A
C801        H806   1.082       .  S
C802        C803   1.403       .  A
C802        H807   1.083       .  S
C803        C804   1.398       .  A
C804       H2424   1.084       .  S
H808       C2420   1.084       .  S
C809        H810   1.066       .  S
C809        C815   1.579       .  S
C809        C814   1.582       .  S
C809        C813   1.579       .  S
C811        H812   1.118       .  S
C811        C817   1.508       .  S
C811        C816   1.511       .  S
C811        C818   1.509       .  S
C813        C816   1.387       .  D
C813        C864   1.548       .  S
C814        C817   1.388       .  D
C814        C846   1.548       .  S
C815        C818   1.387       .  D
C815        C827   1.547       .  S
C816       C1204   1.472       .  S
C817       C1184   1.473       .  S
C818       C1194   1.472       .  S
C819        H820   1.118       .  S
C819        C825   1.508       .  S
C819        C824   1.509       .  S
C819        C823   1.511       .  S
C821        H822   1.067       .  S
C821        C827   1.580       .  S
C821        C826   1.578       .  S
C821        C828   1.582       .  S
C823        C826   1.387       .  D
C823       C1157   1.472       .  S
C824        C827   1.388       .  D
C824       C1174   1.473       .  S
C825        C828   1.389       .  D
C825       C1164   1.475       .  S
C826        C834   1.549       .  S
C828        C883   1.548       .  S
C829        H830   1.067       .  S
C829        C835   1.580       .  S
C829        C834   1.580       .  S
C829        C833   1.580       .  S
C831        H832   1.118       .  S
C831        C837   1.509       .  S
C831        C836   1.511       .  S
C831        C838   1.509       .  S
C833        C836   1.389       .  D
C833        C878   1.548       .  S
C834        C837   1.388       .  D
C835        C838   1.388       .  D
C835        C847   1.548       .  S
C836       C1124   1.476       .  S
C837       C1134   1.470       .  S
C838       C1144   1.474       .  S
C839        H840   1.118       .  S
C839        C845   1.508       .  S
C839        C844   1.510       .  S
C839        C843   1.511       .  S
C841        H842   1.066       .  S
C841        C847   1.579       .  S
C841        C846   1.579       .  S
C841        C848   1.580       .  S
C843        C846   1.388       .  D
C843       C1114   1.476       .  S
C844        C847   1.387       .  D
C844       C1097   1.472       .  S
C845        C848   1.388       .  D
C845       C1104   1.472       .  S
C848        C853   1.547       .  S
C849        H850   1.067       .  S
C849        C855   1.580       .  S
C849        C854   1.580       .  S
C849        C853   1.580       .  S
C851        H852   1.118       .  S
C851        C857   1.509       .  S
C851        C856   1.510       .  S
C851        C858   1.510       .  S
C853        C856   1.388       .  D
C854        C857   1.388       .  D
C854        C863   1.549       .  S
C855        C858   1.389       .  D
C855        C877   1.549       .  S
C856       C1084   1.476       .  S
C857       C1074   1.471       .  S
C858       C1064   1.474       .  S
C859        H860   1.067       .  S
C859        C865   1.580       .  S
C859        C864   1.581       .  S
C859        C863   1.579       .  S
C861        H862   1.118       .  S
C861        C867   1.508       .  S
C861        C866   1.511       .  S
C861        C868   1.509       .  S
C863        C866   1.387       .  D
C864        C867   1.389       .  D
C865        C868   1.389       .  D
C865        C885   1.548       .  S
C866       C1044   1.472       .  S
C867       C1057   1.474       .  S
C868       C1034   1.475       .  S
C869        H870   1.118       .  S
C869        C875   1.509       .  S
C869        C874   1.510       .  S
C869        C873   1.511       .  S
C871        H872   1.066       .  S
C871        C877   1.580       .  S
C871        C876   1.580       .  S
C871        C878   1.581       .  S
C873        C876   1.388       .  D
C873       C1014   1.475       .  S
C874        C877   1.386       .  D
C874       C1004   1.471       .  S
C875        C878   1.388       .  D
C875       C1024   1.472       .  S
C876        C884   1.548       .  S
C879        H880   1.066       .  S
C879        C885   1.579       .  S
C879        C884   1.582       .  S
C879        C883   1.579       .  S
C881        H882   1.118       .  S
C881        C887   1.509       .  S
C881        C886   1.511       .  S
C881        C888   1.510       .  S
C883        C886   1.387       .  D
C884        C887   1.389       .  D
C885        C888   1.386       .  D
C886        C994   1.473       .  S
C887        C974   1.476       .  S
C888        C984   1.470       .  S
O889        V897   1.889   1_655  S
O889       C1707   1.256       .  A
O890        V897   1.890       .  S
O890        C900   1.256       .  A
O891        V897   1.889       .  S
O892        V897   1.890       .  S
O892       C2518   1.257   1_455  A
O893        V898   1.918       .  S
O893       C2518   1.270   1_455  A
O894        V898   1.917       .  S
O895        V898   1.919       .  S
O895        C900   1.270       .  A
O896        V898   1.918       .  S
O896       C1707   1.270   1_455  A
V897        V898   2.044       .  T
C899       O1697   1.256   1_565  A
C899       O1704   1.270   1_565  A
C899       C1207   1.463       .  S
C900       C1127   1.465       .  S
C901       C1107   1.463       .  S
C902       O2508   1.257       .  A
C902       O2509   1.270       .  A
C902       C1167   1.465       .  S
O903        V911   1.919       .  S
O903       C1721   1.270   1_455  A
O904        V911   1.918       .  S
O904        C914   1.270       .  A
O905        V911   1.920       .  S
O906        V911   1.919       .  S
O906       C2532   1.270   1_455  A
O907        V912   1.888   1_655  S
O907       C2532   1.256       .  A
O908        V912   1.890       .  S
O909        V912   1.888       .  S
O909        C914   1.256       .  A
O910        V912   1.889       .  S
O910       C1721   1.257   1_455  A
V911        V912   2.044       .  T
C913       O1711   1.270   1_565  A
C913       O1718   1.257       .  A
C913       C1054   1.464       .  S
C914       C1027   1.463       .  S
C915       C1087   1.466       .  S
C916       O2522   1.270       .  A
C916       O2523   1.256       .  A
C916        C997   1.463       .  S
O917        V925   1.887       .  S
O918        V925   1.887   1_556  S
O918       C1332   1.256       .  A
O919        V925   1.888       .  S
O920        V925   1.889       .  S
O920        C930   1.257       .  A
O921        V926   1.921       .  S
O921        C930   1.271       .  A
O922        V926   1.920       .  S
O923        V926   1.919       .  S
O923       C1332   1.270   1_554  A
O924        V926   1.918       .  S
V925        V926   2.045       .  T
C927       C1047   1.462       .  S
C928       O1322   1.256       .  A
C928       O1327   1.270       .  A
C928       C1154   1.462       .  S
C929       C1187   1.465       .  S
C930        C977   1.466       .  S
O931        V939   1.886       .  S
O931        C941   1.256       .  A
O932        V939   1.885   1_655  S
O932       C2962   1.255   1_554  A
O933        V939   1.884   1_556  S
O933       C1347   1.255       .  A
O934        V939   1.884       .  S
O934       C2560   1.255   1_455  A
O935        V940   1.921       .  S
O935       C2560   1.270   1_455  A
O936        V940   1.919       .  S
O936       C1347   1.270   1_554  A
O937        V940   1.921       .  S
O937       C2962   1.270   1_454  A
O938        V940   1.921       .  S
O938        C941   1.270       .  A
V939        V940   2.054       .  T
C941       C1067   1.465       .  S
C942       O2952   1.255       .  A
C942       O2957   1.270       .  A
C942       C1197   1.462       .  S
C943       O1337   1.256       .  A
C943       O1340   1.270       .  A
C943       C1094   1.462       .  S
C944       O2550   1.255       .  A
C944       O2551   1.270       .  A
C944       C1037   1.464       .  S
O945        V953   1.917       .  S
O946        V953   1.917       .  S
O946       C1360   1.270   1_554  A
O947        V953   1.921       .  S
O948        V953   1.920       .  S
O948        C958   1.270       .  A
O949        V954   1.890       .  S
O949        C958   1.257       .  A
O950        V954   1.890   1_556  S
O951        V954   1.887       .  S
O951       C1360   1.256   1_554  A
O952        V954   1.888       .  S
V953        V954   2.046       .  T
C955       C1077   1.462       .  S
C956       O1350   1.270       .  A
C956       O1355   1.256       .  A
C956       C1137   1.461       .  S
C957       C1117   1.466       .  S
C958       C1017   1.466       .  S
O959        V967   1.884       .  S
O959       C1373   1.256   1_554  A
O960        V967   1.884   1_655  S
O960       C2586   1.255       .  A
O961        V967   1.884       .  S
O961        C971   1.255       .  A
O962        V967   1.885   1_556  S
O962       C2992   1.255   1_455  A
O963        V968   1.922       .  S
O963       C2992   1.270   1_454  A
O964        V968   1.920       .  S
O964        C971   1.270       .  A
O965        V968   1.919       .  S
O965       C2586   1.269   1_455  A
O966        V968   1.919       .  S
O966       C1373   1.270   1_554  A
V967        V968   2.053       .  T
C969       O1363   1.256       .  A
C969       O1370   1.270       .  A
C969       C1147   1.464       .  S
C970       O2576   1.255       .  A
C970       O2581   1.269       .  A
C970        C987   1.461       .  S
C971       C1007   1.462       .  S
C972       O2982   1.255       .  A
C972       O2983   1.270       .  A
C972       C1177   1.463       .  S
C973        C974   1.405       .  A
C973        C978   1.396       .  A
C973        H979   1.078       .  S
C974        C975   1.404       .  A
C975        C976   1.401       .  A
C975        H980   1.081       .  S
C976        C977   1.403       .  A
C976        H981   1.083       .  S
C977        C978   1.399       .  A
C978        H982   1.084       .  S
C983        C984   1.404       .  A
C983        C988   1.397       .  A
C983        H989   1.080       .  S
C984        C985   1.403       .  A
C985        C986   1.397       .  A
C985        H990   1.079       .  S
C986        C987   1.401       .  A
C986       H2607   1.084       .  S
C987        C988   1.400       .  A
C988        H992   1.083       .  S
H991       C2602   1.084   1_455  S
C993        C994   1.404       .  A
C993        C998   1.401       .  A
C993        H999   1.082       .  S
C994        C995   1.404       .  A
C995        C996   1.394       .  A
C995       H1000   1.077       .  S
C996        C997   1.398       .  A
C996       H1001   1.084       .  S
C997        C998   1.403       .  A
C998       H1002   1.083       .  S
C1003      C1004   1.405       .  A
C1003      C1008   1.398       .  A
C1003      H1009   1.080       .  S
C1004      C1005   1.403       .  A
C1005      C1006   1.397       .  A
C1005      H1010   1.079       .  S
C1006      C1007   1.400       .  A
C1006      H1011   1.084       .  S
C1007      C1008   1.401       .  A
C1008      H1012   1.083       .  S
C1013      C1014   1.405       .  A
C1013      C1018   1.402       .  A
C1013      H1019   1.082       .  S
C1014      C1015   1.404       .  A
C1015      C1016   1.395       .  A
C1015      H1020   1.077       .  S
C1016      C1017   1.399       .  A
C1016      H1021   1.084       .  S
C1017      C1018   1.404       .  A
C1018      H1022   1.083       .  S
C1023      C1024   1.405       .  A
C1023      C1028   1.394       .  A
C1023      H1029   1.078       .  S
C1024      C1025   1.404       .  A
C1025      C1026   1.400       .  A
C1025      H1030   1.081       .  S
C1026      C1027   1.403       .  A
C1026      H1031   1.083       .  S
C1027      C1028   1.399       .  A
C1028      H1032   1.084       .  S
C1033      C1034   1.405       .  A
C1033      C1038   1.399       .  A
C1033      H1039   1.080       .  S
C1034      C1035   1.404       .  A
C1035      C1036   1.398       .  A
C1035      H1040   1.080       .  S
C1036      C1037   1.401       .  A
C1036      H1041   1.084       .  S
C1037      C1038   1.401       .  A
C1038      H2658   1.083       .  S
H1042      C2654   1.083   1_455  S
C1043      C1044   1.403       .  A
C1043      C1048   1.393       .  A
C1043      H1049   1.077       .  S
C1044      C1045   1.404       .  A
C1045      C1046   1.400       .  A
C1045      H1050   1.082       .  S
C1046      C1047   1.403       .  A
C1046      H1051   1.083   1_565  S
C1047      C1048   1.398       .  A
C1048      H1052   1.084       .  S
C1053      C1054   1.399       .  A
C1053      C1058   1.395       .  A
C1053      H1059   1.084       .  S
C1054      C1055   1.403       .  A
C1055      C1056   1.401       .  A
C1055      H1060   1.083       .  S
C1056      C1057   1.404       .  A
C1056      H1061   1.081       .  S
C1057      C1058   1.405       .  A
C1058      H1062   1.078       .  S
C1063      C1064   1.403       .  A
C1063      C1068   1.397       .  A
C1063      H1069   1.079       .  S
C1064      C1065   1.405       .  A
C1065      C1066   1.400       .  A
C1065      H1070   1.080       .  S
C1066      C1067   1.401       .  A
C1066      H1071   1.083       .  S
C1067      C1068   1.401       .  A
C1068      H1072   1.084       .  S
C1073      C1074   1.404       .  A
C1073      C1078   1.394       .  A
C1073      H1079   1.078       .  S
C1074      C1075   1.404       .  A
C1075      C1076   1.400       .  A
C1075      H1080   1.081       .  S
C1076      C1077   1.403       .  A
C1076      H1081   1.083       .  S
C1077      C1078   1.398       .  A
C1083      C1084   1.404       .  A
C1083      C1088   1.395       .  A
C1083      H1089   1.077       .  S
C1084      C1085   1.405       .  A
C1085      C1086   1.402       .  A
C1085      H1090   1.082       .  S
C1086      C1087   1.404       .  A
C1086      H1091   1.083   1_565  S
C1087      C1088   1.398       .  A
C1088      H1092   1.084       .  S
C1093      C1094   1.400       .  A
C1093      C1098   1.396       .  A
C1093      H1099   1.084       .  S
C1094      C1095   1.401       .  A
C1095      C1096   1.399       .  A
C1095      H1100   1.083       .  S
C1096      C1097   1.405       .  A
C1096      H1101   1.080       .  S
C1097      C1098   1.403       .  A
C1098      H1102   1.079       .  S
C1103      C1104   1.405       .  A
C1103      C1108   1.401       .  A
C1103      H1109   1.081       .  S
C1104      C1105   1.405       .  A
C1105      C1106   1.394       .  A
C1105      H1110   1.078       .  S
C1106      C1107   1.399       .  A
C1107      C1108   1.403       .  A
C1108      H1112   1.083       .  S
C1113      C1114   1.405       .  A
C1113      C1118   1.402       .  A
C1113      H1119   1.082       .  S
C1114      C1115   1.404       .  A
C1115      C1116   1.394       .  A
C1115      H1120   1.076       .  S
C1116      C1117   1.398       .  A
C1116      H1525   1.084       .  S
C1117      C1118   1.404       .  A
H1121      C1520   1.084       .  S
C1123      C1124   1.405       .  A
C1123      C1128   1.402       .  A
C1123      H1129   1.082       .  S
C1124      C1125   1.404       .  A
C1125      C1126   1.395       .  A
C1125      H1130   1.077       .  S
C1126      C1127   1.398       .  A
C1126      H1131   1.084       .  S
C1127      C1128   1.404       .  A
C1128      H1132   1.083       .  S
C1133      C1134   1.404       .  A
C1133      C1138   1.400       .  A
C1133      H1139   1.081       .  S
C1134      C1135   1.404       .  A
C1135      C1136   1.393       .  A
C1135      H1140   1.078       .  S
C1136      C1137   1.398       .  A
C1136      H1141   1.084       .  S
C1137      C1138   1.403       .  A
C1138      H1546   1.083       .  S
H1142      C1542   1.083   1_554  S
C1143      C1144   1.405       .  A
C1143      C1148   1.399       .  A
C1143      H1149   1.080       .  S
C1144      C1145   1.403       .  A
C1145      C1146   1.397       .  A
C1145      H1150   1.079       .  S
C1146      C1147   1.401       .  A
C1146      H1151   1.084       .  S
C1147      C1148   1.401       .  A
C1148      H1556   1.083       .  S
H1152      C1552   1.083   1_554  S
C1153      C1154   1.403       .  A
C1153      C1158   1.400       .  A
C1153      H1159   1.083       .  S
C1154      C1155   1.398       .  A
C1155      C1156   1.393       .  A
C1155      H1564   1.084       .  S
C1156      C1157   1.403       .  A
C1156      H1161   1.077       .  S
C1157      C1158   1.404       .  A
C1158      H1162   1.082       .  S
H1160      C1559   1.084   1_554  S
C1163      C1164   1.405       .  A
C1163      C1168   1.395       .  A
C1163      H1169   1.078       .  S
C1164      C1165   1.405       .  A
C1165      C1166   1.401       .  A
C1165      H1170   1.081       .  S
C1166      C1167   1.403       .  A
C1166      H1171   1.083       .  S
C1167      C1168   1.399       .  A
C1168      H1172   1.084       .  S
C1173      C1174   1.405       .  A
C1173      C1178   1.399       .  A
C1173      H1179   1.080       .  S
C1174      C1175   1.403       .  A
C1175      C1176   1.397       .  A
C1175      H1180   1.079       .  S
C1176      C1177   1.401       .  A
C1176      H1585   1.084       .  S
C1177      C1178   1.401       .  A
C1178      H2798   1.083       .  S
H1181      C1580   1.083   1_554  S
H1182      C2794   1.083   1_455  S
C1183      C1184   1.405       .  A
C1183      C1188   1.395       .  A
C1183      H1189   1.078       .  S
C1184      C1185   1.404       .  A
C1185      C1186   1.400       .  A
C1185      H1190   1.081       .  S
C1186      C1187   1.403       .  A
C1186      H1191   1.083       .  S
C1187      C1188   1.399       .  A
C1188      H1192   1.084   1_565  S
C1193      C1194   1.405       .  A
C1193      C1198   1.399       .  A
C1193      H1199   1.080       .  S
C1194      C1195   1.403       .  A
C1195      C1196   1.396       .  A
C1195      H1200   1.079       .  S
C1196      C1197   1.400       .  A
C1196      H2817   1.084       .  S
C1197      C1198   1.401       .  A
C1198      H1202   1.083       .  S
H1201      C2812   1.084   1_455  S
C1203      C1204   1.403       .  A
C1203      C1208   1.393       .  A
C1203      H1209   1.077       .  S
C1204      C1205   1.404       .  A
C1205      C1206   1.400       .  A
C1205      H1210   1.082       .  S
C1206      C1207   1.403       .  A
C1206      H1211   1.083   1_565  S
C1207      C1208   1.398       .  A
C1208      H2828   1.084       .  S
H1212      C2824   1.084   1_455  S
C1213      H1214   1.066       .  S
C1213      C1219   1.580       .  S
C1213      C1218   1.582       .  S
C1213      C1217   1.578       .  S
C1215      H1216   1.118       .  S
C1215      C1221   1.508       .  S
C1215      C1220   1.511       .  S
C1215      C1222   1.510       .  S
C1217      C1220   1.386       .  D
C1217      C1268   1.548       .  S
C1218      C1221   1.388       .  D
C1218      C1250   1.547       .  S
C1219      C1222   1.388       .  D
C1219      C1231   1.548       .  S
C1220      C1608   1.471       .  S
C1221      C1588   1.474       .  S
C1222      C1598   1.474       .  S
C1223      H1224   1.118       .  S
C1223      C1229   1.509       .  S
C1223      C1228   1.509       .  S
C1223      C1227   1.512       .  S
C1225      H1226   1.067       .  S
C1225      C1231   1.582       .  S
C1225      C1230   1.579       .  S
C1225      C1232   1.582       .  S
C1227      C1230   1.388       .  D
C1227      C1561   1.473       .  S
C1228      C1231   1.388       .  D
C1228      C1578   1.475       .  S
C1229      C1232   1.389       .  D
C1229      C1568   1.474       .  S
C1230      C1238   1.549       .  S
C1232      C1287   1.549       .  S
C1233      H1234   1.067       .  S
C1233      C1239   1.579       .  S
C1233      C1238   1.581       .  S
C1233      C1237   1.580       .  S
C1235      H1236   1.118       .  S
C1235      C1241   1.509       .  S
C1235      C1240   1.510       .  S
C1235      C1242   1.510       .  S
C1237      C1240   1.389       .  D
C1237      C1282   1.547       .  S
C1238      C1241   1.388       .  D
C1239      C1242   1.387       .  D
C1239      C1251   1.549       .  S
C1240      C1528   1.478       .  S
C1241      C1538   1.472       .  S
C1242      C1548   1.471       .  S
C1243      H1244   1.118       .  S
C1243      C1249   1.508       .  S
C1243      C1248   1.510       .  S
C1243      C1247   1.511       .  S
C1245      H1246   1.066       .  S
C1245      C1251   1.579       .  S
C1245      C1250   1.580       .  S
C1245      C1252   1.580       .  S
C1247      C1250   1.389       .  D
C1247      C1518   1.477       .  S
C1248      C1251   1.387       .  D
C1248      C1501   1.470       .  S
C1249      C1252   1.388       .  D
C1249      C1508   1.472       .  S
C1252      C1257   1.547       .  S
C1253      H1254   1.067       .  S
C1253      C1259   1.579       .  S
C1253      C1258   1.580       .  S
C1253      C1257   1.580       .  S
C1255      H1256   1.118       .  S
C1255      C1261   1.508       .  S
C1255      C1260   1.510       .  S
C1255      C1262   1.509       .  S
C1257      C1260   1.388       .  D
C1258      C1261   1.388       .  D
C1258      C1267   1.548       .  S
C1259      C1262   1.388       .  D
C1259      C1281   1.548       .  S
C1260      C1488   1.476       .  S
C1261      C1478   1.471       .  S
C1262      C1468   1.472       .  S
C1263      H1264   1.067       .  S
C1263      C1269   1.580       .  S
C1263      C1268   1.581       .  S
C1263      C1267   1.577       .  S
C1265      H1266   1.118       .  S
C1265      C1271   1.508       .  S
C1265      C1270   1.510       .  S
C1265      C1272   1.509       .  S
C1267      C1270   1.386       .  D
C1268      C1271   1.389       .  D
C1269      C1272   1.389       .  D
C1269      C1289   1.547       .  S
C1270      C1448   1.470       .  S
C1271      C1461   1.474       .  S
C1272      C1438   1.475       .  S
C1273      H1274   1.118       .  S
C1273      C1279   1.508       .  S
C1273      C1278   1.510       .  S
C1273      C1277   1.511       .  S
C1275      H1276   1.066       .  S
C1275      C1281   1.579       .  S
C1275      C1280   1.579       .  S
C1275      C1282   1.581       .  S
C1277      C1280   1.388       .  D
C1277      C1418   1.476       .  S
C1278      C1281   1.386       .  D
C1278      C1408   1.470       .  S
C1279      C1282   1.387       .  D
C1279      C1428   1.472       .  S
C1280      C1288   1.548       .  S
C1283      H1284   1.066       .  S
C1283      C1289   1.580       .  S
C1283      C1288   1.582       .  S
C1283      C1287   1.579       .  S
C1285      H1286   1.118       .  S
C1285      C1291   1.509       .  S
C1285      C1290   1.512       .  S
C1285      C1292   1.510       .  S
C1287      C1290   1.388       .  D
C1288      C1291   1.388       .  D
C1289      C1292   1.387       .  D
C1290      C1398   1.473       .  S
C1291      C1378   1.474       .  S
C1292      C1388   1.473       .  S
O1293      V1301   1.889   1_655  S
O1293      C2111   1.256       .  A
O1294      V1301   1.890       .  S
O1294      C1304   1.256       .  A
O1295      V1301   1.889       .  S
O1296      V1301   1.890       .  S
O1296      C2922   1.257   1_455  A
O1297      V1302   1.919       .  S
O1297      C2922   1.270   1_455  A
O1298      V1302   1.918       .  S
O1299      V1302   1.919       .  S
O1299      C1304   1.270       .  A
O1300      V1302   1.917       .  S
O1300      C2111   1.270   1_455  A
V1301      V1302   2.044       .  T
C1303      O2101   1.256   1_565  A
C1303      O2108   1.270   1_565  A
C1303      C1611   1.463       .  S
C1304      C1531   1.466       .  S
C1305      C1511   1.463       .  S
C1306      O2912   1.257       .  A
C1306      O2913   1.270       .  A
C1306      C1571   1.465       .  S
O1307      V1315   1.918       .  S
O1307      C2125   1.270   1_455  A
O1308      V1315   1.918       .  S
O1308      C1318   1.270       .  A
O1309      V1315   1.919       .  S
O1310      V1315   1.919       .  S
O1310      C2936   1.270   1_455  A
O1311      V1316   1.889   1_655  S
O1311      C2936   1.256       .  A
O1312      V1316   1.890       .  S
O1313      V1316   1.889       .  S
O1313      C1318   1.256       .  A
O1314      V1316   1.889       .  S
O1314      C2125   1.257   1_455  A
V1315      V1316   2.044       .  T
C1317      O2115   1.270   1_565  A
C1317      O2122   1.257       .  A
C1317      C1458   1.465       .  S
C1318      C1431   1.463       .  S
C1319      C1491   1.465       .  S
C1320      O2926   1.270       .  A
C1320      O2927   1.256       .  A
C1320      C1401   1.464       .  S
O1321      V1329   1.888       .  S
O1322      V1329   1.887       .  S
O1323      V1329   1.889       .  S
O1324      V1329   1.889       .  S
O1324      C1334   1.257       .  A
O1325      V1330   1.920       .  S
O1325      C1334   1.270       .  A
O1326      V1330   1.919       .  S
O1327      V1330   1.917       .  S
O1328      V1330   1.917       .  S
V1329      V1330   2.045       .  T
C1331      C1451   1.460       .  S
C1332      C1558   1.463       .  S
C1333      C1591   1.466       .  S
C1334      C1381   1.465       .  S
O1335      V1343   1.884       .  S
O1335      C1345   1.256       .  A
O1336      V1343   1.884   1_655  S
O1336      C2558   1.255       .  A
O1337      V1343   1.885       .  S
O1338      V1343   1.885       .  S
O1338      C2964   1.255   1_455  A
O1339      V1344   1.921       .  S
O1339      C2964   1.270   1_455  A
O1340      V1344   1.920       .  S
O1341      V1344   1.920       .  S
O1341      C2558   1.270   1_455  A
O1342      V1344   1.919       .  S
O1342      C1345   1.270       .  A
V1343      V1344   2.053       .  T
C1345      C1471   1.462       .  S
C1346      O2548   1.255   1_556  A
C1346      O2553   1.270   1_556  A
C1346      C1601   1.465       .  S
C1347      C1498   1.461       .  S
C1348      O2954   1.255       .  A
C1348      O2955   1.270       .  A
C1348      C1441   1.464       .  S
O1349      V1357   1.917       .  S
O1350      V1357   1.917       .  S
O1351      V1357   1.919       .  S
O1352      V1357   1.920       .  S
O1352      C1362   1.270       .  A
O1353      V1358   1.890       .  S
O1353      C1362   1.256       .  A
O1354      V1358   1.891       .  S
O1355      V1358   1.887       .  S
O1356      V1358   1.888       .  S
V1357      V1358   2.046       .  T
C1359      C1481   1.461       .  S
C1360      C1541   1.462       .  S
C1361      C1521   1.467       .  S
C1362      C1421   1.466       .  S
O1363      V1371   1.886       .  S
O1364      V1371   1.885   1_655  S
O1364      C2990   1.255       .  A
O1365      V1371   1.884       .  S
O1365      C1375   1.255       .  A
O1366      V1371   1.884       .  S
O1366      C2588   1.255   1_455  A
O1367      V1372   1.919       .  S
O1367      C2588   1.269   1_455  A
O1368      V1372   1.918       .  S
O1368      C1375   1.269       .  A
O1369      V1372   1.920       .  S
O1369      C2990   1.270   1_455  A
O1370      V1372   1.920       .  S
V1371      V1372   2.054       .  T
C1373      C1551   1.462       .  S
C1374      O2980   1.255       .  A
C1374      O2985   1.270       .  A
C1374      C1391   1.463       .  S
C1375      C1411   1.461       .  S
C1376      O2578   1.255       .  A
C1376      O2579   1.270   1_556  A
C1376      C1581   1.466       .  S
C1377      C1378   1.405       .  A
C1377      C1382   1.396       .  A
C1377      H1383   1.079       .  S
C1378      C1379   1.404       .  A
C1379      C1380   1.401       .  A
C1379      H1384   1.081       .  S
C1380      C1381   1.403       .  A
C1380      H1385   1.083       .  S
C1381      C1382   1.399       .  A
C1382      H1386   1.084       .  S
C1387      C1388   1.405       .  A
C1387      C1392   1.399       .  A
C1387      H1393   1.080       .  S
C1388      C1389   1.403       .  A
C1389      C1390   1.397       .  A
C1389      H1394   1.080       .  S
C1390      C1391   1.401       .  A
C1390      H3011   1.084       .  S
C1391      C1392   1.401       .  A
C1392      H1396   1.083       .  S
H1395      C3006   1.084   1_455  S
C1397      C1398   1.404       .  A
C1397      C1402   1.401       .  A
C1397      H1403   1.082       .  S
C1398      C1399   1.404       .  A
C1399      C1400   1.394       .  A
C1399      H1404   1.077       .  S
C1400      C1401   1.398       .  A
C1400      H1405   1.084       .  S
C1401      C1402   1.403       .  A
C1402      H1406   1.083       .  S
C1407      C1408   1.404       .  A
C1407      C1412   1.398       .  A
C1407      H1413   1.080       .  S
C1408      C1409   1.402       .  A
C1409      C1410   1.395       .  A
C1409      H1414   1.079       .  S
C1410      C1411   1.400       .  A
C1410      H1415   1.084       .  S
C1411      C1412   1.401       .  A
C1412      H1416   1.083       .  S
C1417      C1418   1.405       .  A
C1417      C1422   1.402       .  A
C1417      H1423   1.082       .  S
C1418      C1419   1.404       .  A
C1419      C1420   1.395       .  A
C1419      H1424   1.077       .  S
C1420      C1421   1.398       .  A
C1420      H1425   1.084       .  S
C1421      C1422   1.404       .  A
C1422      H1426   1.083       .  S
C1427      C1428   1.404       .  A
C1427      C1432   1.394       .  A
C1427      H1433   1.078       .  S
C1428      C1429   1.405       .  A
C1429      C1430   1.400       .  A
C1429      H1434   1.081       .  S
C1430      C1431   1.403       .  A
C1430      H1435   1.083       .  S
C1431      C1432   1.399       .  A
C1432      H1436   1.084       .  S
C1437      C1438   1.405       .  A
C1437      C1442   1.400       .  A
C1437      H1443   1.080       .  S
C1438      C1439   1.404       .  A
C1439      C1440   1.398       .  A
C1439      H1444   1.079       .  S
C1440      C1441   1.401       .  A
C1440      H1445   1.084       .  S
C1441      C1442   1.401       .  A
C1442      H3062   1.083       .  S
H1446      C3058   1.083   1_455  S
C1447      C1448   1.403       .  A
C1447      C1452   1.393       .  A
C1447      H1453   1.077       .  S
C1448      C1449   1.404       .  A
C1449      C1450   1.399       .  A
C1449      H1454   1.082       .  S
C1450      C1451   1.402       .  A
C1450      H1455   1.083   1_565  S
C1451      C1452   1.398       .  A
C1452      H1456   1.084       .  S
C1457      C1458   1.399       .  A
C1457      C1462   1.395       .  A
C1457      H1463   1.084       .  S
C1458      C1459   1.403       .  A
C1459      C1460   1.401       .  A
C1459      H1464   1.083       .  S
C1460      C1461   1.404       .  A
C1460      H1465   1.081       .  S
C1461      C1462   1.405       .  A
C1462      H1466   1.078       .  S
C1467      C1468   1.403       .  A
C1467      C1472   1.396       .  A
C1467      H1473   1.079       .  S
C1468      C1469   1.405       .  A
C1469      C1470   1.399       .  A
C1469      H1474   1.080       .  S
C1470      C1471   1.401       .  A
C1470      H1475   1.083       .  S
C1471      C1472   1.400       .  A
C1472      H1476   1.084       .  S
C1477      C1478   1.404       .  A
C1477      C1482   1.393       .  A
C1477      H1483   1.078       .  S
C1478      C1479   1.404       .  A
C1479      C1480   1.400       .  A
C1479      H1484   1.081       .  S
C1480      C1481   1.403       .  A
C1480      H1485   1.083       .  S
C1481      C1482   1.398       .  A
C1487      C1488   1.403       .  A
C1487      C1492   1.394       .  A
C1487      H1493   1.076       .  S
C1488      C1489   1.405       .  A
C1489      C1490   1.402       .  A
C1489      H1494   1.082       .  S
C1490      C1491   1.404       .  A
C1490      H1495   1.083   1_565  S
C1491      C1492   1.398       .  A
C1492      H1496   1.084       .  S
C1497      C1498   1.400       .  A
C1497      C1502   1.395       .  A
C1497      H1503   1.084   1_556  S
C1498      C1499   1.401       .  A
C1499      C1500   1.399       .  A
C1499      H1504   1.083       .  S
C1500      C1501   1.405       .  A
C1500      H1505   1.080       .  S
C1501      C1502   1.402       .  A
C1502      H1506   1.079       .  S
C1507      C1508   1.405       .  A
C1507      C1512   1.401       .  A
C1507      H1513   1.081       .  S
C1508      C1509   1.404       .  A
C1509      C1510   1.394       .  A
C1509      H1514   1.078       .  S
C1510      C1511   1.398       .  A
C1511      C1512   1.403       .  A
C1512      H1516   1.083       .  S
C1517      C1518   1.405       .  A
C1517      C1522   1.403       .  A
C1517      H1523   1.081       .  S
C1518      C1519   1.404       .  A
C1519      C1520   1.395       .  A
C1519      H1524   1.076       .  S
C1520      C1521   1.399       .  A
C1521      C1522   1.404       .  A
C1527      C1528   1.405       .  A
C1527      C1532   1.403       .  A
C1527      H1533   1.082       .  S
C1528      C1529   1.404       .  A
C1529      C1530   1.395       .  A
C1529      H1534   1.077       .  S
C1530      C1531   1.398       .  A
C1530      H1535   1.084       .  S
C1531      C1532   1.404       .  A
C1532      H1536   1.083       .  S
C1537      C1538   1.404       .  A
C1537      C1542   1.400       .  A
C1537      H1543   1.081       .  S
C1538      C1539   1.404       .  A
C1539      C1540   1.394       .  A
C1539      H1544   1.078       .  S
C1540      C1541   1.398       .  A
C1540      H1545   1.084       .  S
C1541      C1542   1.403       .  A
C1547      C1548   1.405       .  A
C1547      C1552   1.399       .  A
C1547      H1553   1.080       .  S
C1548      C1549   1.403       .  A
C1549      C1550   1.396       .  A
C1549      H1554   1.079       .  S
C1550      C1551   1.400       .  A
C1550      H1555   1.084       .  S
C1551      C1552   1.401       .  A
C1557      C1558   1.403       .  A
C1557      C1562   1.400       .  A
C1557      H1563   1.083       .  S
C1558      C1559   1.398       .  A
C1559      C1560   1.394       .  A
C1560      C1561   1.404       .  A
C1560      H1565   1.077       .  S
C1561      C1562   1.404       .  A
C1562      H1566   1.082       .  S
C1567      C1568   1.405       .  A
C1567      C1572   1.395       .  A
C1567      H1573   1.078       .  S
C1568      C1569   1.405       .  A
C1569      C1570   1.401       .  A
C1569      H1574   1.081       .  S
C1570      C1571   1.403       .  A
C1570      H1575   1.083       .  S
C1571      C1572   1.399       .  A
C1572      H1576   1.084       .  S
C1577      C1578   1.405       .  A
C1577      C1582   1.399       .  A
C1577      H1583   1.080       .  S
C1578      C1579   1.404       .  A
C1579      C1580   1.399       .  A
C1579      H1584   1.080       .  S
C1580      C1581   1.401       .  A
C1581      C1582   1.401       .  A
C1582      H3202   1.083       .  S
H1586      C3198   1.083   1_455  S
C1587      C1588   1.405       .  A
C1587      C1592   1.396       .  A
C1587      H1593   1.078       .  S
C1588      C1589   1.404       .  A
C1589      C1590   1.400       .  A
C1589      H1594   1.081       .  S
C1590      C1591   1.403       .  A
C1590      H1595   1.083   1_556  S
C1591      C1592   1.399       .  A
C1592      H1596   1.084   1_565  S
C1597      C1598   1.405       .  A
C1597      C1602   1.399       .  A
C1597      H1603   1.080       .  S
C1598      C1599   1.403       .  A
C1599      C1600   1.398       .  A
C1599      H1604   1.079       .  S
C1600      C1601   1.401       .  A
C1600      H3221   1.083       .  S
C1601      C1602   1.401       .  A
C1602      H1606   1.083   1_556  S
H1605      C3216   1.083   1_455  S
C1607      C1608   1.403       .  A
C1607      C1612   1.393       .  A
C1607      H1613   1.077       .  S
C1608      C1609   1.404       .  A
C1609      C1610   1.401       .  A
C1609      H1614   1.082       .  S
C1610      C1611   1.403       .  A
C1610      H1615   1.083   1_565  S
C1611      C1612   1.398       .  A
C1612      H3232   1.084       .  S
H1616      C3228   1.084   1_455  S
C1617      H1618   1.066       .  S
C1617      C1623   1.579       .  S
C1617      C1622   1.582       .  S
C1617      C1621   1.579       .  S
C1619      H1620   1.118       .  S
C1619      C1625   1.508       .  S
C1619      C1624   1.511       .  S
C1619      C1626   1.509       .  S
C1621      C1624   1.387       .  D
C1621      C1672   1.548       .  S
C1622      C1625   1.389       .  D
C1622      C1654   1.548       .  S
C1623      C1626   1.387       .  D
C1623      C1635   1.547       .  S
C1624      C2012   1.472       .  S
C1625      C1992   1.474       .  S
C1626      C2002   1.471       .  S
C1627      H1628   1.118       .  S
C1627      C1633   1.508       .  S
C1627      C1632   1.509       .  S
C1627      C1631   1.511       .  S
C1629      H1630   1.067       .  S
C1629      C1635   1.580       .  S
C1629      C1634   1.578       .  S
C1629      C1636   1.582       .  S
C1631      C1634   1.388       .  D
C1631      C1965   1.472       .  S
C1632      C1635   1.388       .  D
C1632      C1982   1.474       .  S
C1633      C1636   1.389       .  D
C1633      C1972   1.475       .  S
C1634      C1642   1.549       .  S
C1636      C1691   1.548       .  S
C1637      H1638   1.067       .  S
C1637      C1643   1.580       .  S
C1637      C1642   1.581       .  S
C1637      C1641   1.581       .  S
C1639      H1640   1.118       .  S
C1639      C1645   1.509       .  S
C1639      C1644   1.511       .  S
C1639      C1646   1.509       .  S
C1641      C1644   1.389       .  D
C1641      C1686   1.548       .  S
C1642      C1645   1.388       .  D
C1643      C1646   1.388       .  D
C1643      C1655   1.548       .  S
C1644      C1932   1.477       .  S
C1645      C1942   1.471       .  S
C1646      C1952   1.474       .  S
C1647      H1648   1.118       .  S
C1647      C1653   1.509       .  S
C1647      C1652   1.510       .  S
C1647      C1651   1.511       .  S
C1649      H1650   1.066       .  S
C1649      C1655   1.579       .  S
C1649      C1654   1.580       .  S
C1649      C1656   1.580       .  S
C1651      C1654   1.388       .  D
C1651      C1922   1.476       .  S
C1652      C1655   1.387       .  D
C1652      C1905   1.472       .  S
C1653      C1656   1.388       .  D
C1653      C1912   1.472       .  S
C1656      C1661   1.548       .  S
C1657      H1658   1.067       .  S
C1657      C1663   1.580       .  S
C1657      C1662   1.580       .  S
C1657      C1661   1.580       .  S
C1659      H1660   1.118       .  S
C1659      C1665   1.509       .  S
C1659      C1664   1.510       .  S
C1659      C1666   1.509       .  S
C1661      C1664   1.388       .  D
C1662      C1665   1.388       .  D
C1662      C1671   1.549       .  S
C1663      C1666   1.389       .  D
C1663      C1685   1.548       .  S
C1664      C1892   1.475       .  S
C1665      C1882   1.471       .  S
C1666      C1872   1.475       .  S
C1667      H1668   1.067       .  S
C1667      C1673   1.580       .  S
C1667      C1672   1.581       .  S
C1667      C1671   1.579       .  S
C1669      H1670   1.118       .  S
C1669      C1675   1.508       .  S
C1669      C1674   1.511       .  S
C1669      C1676   1.509       .  S
C1671      C1674   1.387       .  D
C1672      C1675   1.389       .  D
C1673      C1676   1.389       .  D
C1673      C1693   1.548       .  S
C1674      C1852   1.472       .  S
C1675      C1865   1.474       .  S
C1676      C1842   1.475       .  S
C1677      H1678   1.118       .  S
C1677      C1683   1.509       .  S
C1677      C1682   1.510       .  S
C1677      C1681   1.511       .  S
C1679      H1680   1.066       .  S
C1679      C1685   1.580       .  S
C1679      C1684   1.581       .  S
C1679      C1686   1.581       .  S
C1681      C1684   1.388       .  D
C1681      C1822   1.476       .  S
C1682      C1685   1.386       .  D
C1682      C1812   1.471       .  S
C1683      C1686   1.388       .  D
C1683      C1832   1.472       .  S
C1684      C1692   1.548       .  S
C1687      H1688   1.066       .  S
C1687      C1693   1.579       .  S
C1687      C1692   1.582       .  S
C1687      C1691   1.579       .  S
C1689      H1690   1.118       .  S
C1689      C1695   1.509       .  S
C1689      C1694   1.511       .  S
C1689      C1696   1.510       .  S
C1691      C1694   1.387       .  D
C1692      C1695   1.389       .  D
C1693      C1696   1.386       .  D
C1694      C1802   1.473       .  S
C1695      C1782   1.476       .  S
C1696      C1792   1.470       .  S
O1697      V1705   1.889       .  S
O1698      V1705   1.890       .  S
O1698      C1708   1.256       .  A
O1699      V1705   1.889   1_565  S
O1699      C2517   1.256       .  A
O1700      V1705   1.890       .  S
O1701      V1706   1.918       .  S
O1702      V1706   1.917       .  S
O1702      C2517   1.270   1_545  A
O1703      V1706   1.919       .  S
O1703      C1708   1.270       .  A
O1704      V1706   1.918       .  S
V1705      V1706   2.045       .  T
C1707      C2015   1.463       .  S
C1708      C1935   1.466       .  S
C1709      O2507   1.256       .  A
C1709      O2510   1.270       .  A
C1709      C1915   1.463       .  S
C1710      C1975   1.465       .  S
O1711      V1719   1.919       .  S
O1712      V1719   1.918       .  S
O1712      C1722   1.270       .  A
O1713      V1719   1.920       .  S
O1713      C2531   1.271   1_545  A
O1714      V1719   1.919       .  S
O1715      V1720   1.888       .  S
O1716      V1720   1.890       .  S
O1716      C2531   1.256   1_545  A
O1717      V1720   1.889       .  S
O1717      C1722   1.256       .  A
O1718      V1720   1.889   1_565  S
V1719      V1720   2.044       .  T
C1721      C1862   1.465       .  S
C1722      C1835   1.463       .  S
C1723      O2521   1.270       .  A
C1723      O2524   1.256       .  A
C1723      C1895   1.465       .  S
C1724      C1805   1.463       .  S
O1725      V1733   1.888       .  S
O1725      C2543   1.256   1_545  A
O1726      V1733   1.887   1_556  S
O1726      C2140   1.256       .  A
O1727      V1733   1.888   1_565  S
O1727      C2949   1.256   1_554  A
O1728      V1733   1.889       .  S
O1728      C1738   1.257       .  A
O1729      V1734   1.921       .  S
O1729      C1738   1.271       .  A
O1730      V1734   1.920       .  S
O1730      C2949   1.270   1_544  A
O1731      V1734   1.918       .  S
O1731      C2140   1.270   1_554  A
O1732      V1734   1.918       .  S
O1732      C2543   1.270   1_545  A
V1733      V1734   2.046       .  T
C1735      O2533   1.256       .  A
C1735      O2540   1.270       .  A
C1735      C1855   1.463       .  S
C1736      O2130   1.256       .  A
C1736      O2135   1.270       .  A
C1736      C1962   1.462       .  S
C1737      O2939   1.256       .  A
C1737      O2942   1.270       .  A
C1737      C1995   1.465       .  S
C1738      C1785   1.467       .  S
O1739      V1747   1.885       .  S
O1739      C1749   1.256       .  A
O1740      V1747   1.884       .  S
O1741      V1747   1.883   1_556  S
O1741      C2155   1.255       .  A
O1742      V1747   1.883       .  S
O1743      V1748   1.921       .  S
O1744      V1748   1.919       .  S
O1744      C2155   1.270   1_554  A
O1745      V1748   1.921       .  S
O1746      V1748   1.922       .  S
O1746      C1749   1.270       .  A
V1747      V1748   2.056       .  T
C1749      C1875   1.465       .  S
C1750      C2005   1.461       .  S
C1751      O2145   1.256       .  A
C1751      O2148   1.270       .  A
C1751      C1902   1.463       .  S
C1752      C1845   1.465       .  S
O1753      V1761   1.917       .  S
O1753      C2571   1.270   1_545  A
O1754      V1761   1.917       .  S
O1754      C2168   1.270   1_554  A
O1755      V1761   1.920       .  S
O1755      C2977   1.271   1_544  A
O1756      V1761   1.920       .  S
O1756      C1766   1.270       .  A
O1757      V1762   1.890       .  S
O1757      C1766   1.257       .  A
O1758      V1762   1.890   1_556  S
O1758      C2977   1.257   1_545  A
O1759      V1762   1.887       .  S
O1759      C2168   1.256   1_554  A
O1760      V1762   1.888   1_565  S
O1760      C2571   1.256       .  A
V1761      V1762   2.046       .  T
C1763      O2561   1.270       .  A
C1763      O2568   1.256       .  A
C1763      C1885   1.463       .  S
C1764      O2158   1.270       .  A
C1764      O2163   1.256       .  A
C1764      C1945   1.462       .  S
C1765      O2967   1.270       .  A
C1765      O2970   1.257       .  A
C1765      C1925   1.466       .  S
C1766      C1825   1.466       .  S
O1767      V1775   1.883       .  S
O1767      C2181   1.255   1_554  A
O1768      V1775   1.882       .  S
O1769      V1775   1.883       .  S
O1769      C1779   1.255       .  A
O1770      V1775   1.884   1_556  S
O1771      V1776   1.922       .  S
O1772      V1776   1.921       .  S
O1772      C1779   1.270       .  A
O1773      V1776   1.920       .  S
O1774      V1776   1.919       .  S
O1774      C2181   1.270   1_554  A
V1775      V1776   2.055       .  T
C1777      O2171   1.256       .  A
C1777      O2178   1.270       .  A
C1777      C1955   1.464       .  S
C1778      C1795   1.461       .  S
C1779      C1815   1.462       .  S
C1780      C1985   1.464       .  S
C1781      C1782   1.406       .  A
C1781      C1786   1.396       .  A
C1781      H1787   1.078       .  S
C1782      C1783   1.404       .  A
C1783      C1784   1.401       .  A
C1783      H1788   1.081       .  S
C1784      C1785   1.403       .  A
C1784      H1789   1.083       .  S
C1785      C1786   1.399       .  A
C1786      H1790   1.084       .  S
C1791      C1792   1.404       .  A
C1791      C1796   1.397       .  A
C1791      H1797   1.080       .  S
C1792      C1793   1.403       .  A
C1793      C1794   1.397       .  A
C1793      H1798   1.080       .  S
C1794      C1795   1.401       .  A
C1795      C1796   1.400       .  A
C1796      H1800   1.083       .  S
C1801      C1802   1.404       .  A
C1801      C1806   1.401       .  A
C1801      H1807   1.082       .  S
C1802      C1803   1.404       .  A
C1803      C1804   1.394       .  A
C1803      H1808   1.077       .  S
C1804      C1805   1.398       .  A
C1804      H1809   1.084   1_655  S
C1805      C1806   1.403       .  A
C1806      H1810   1.083       .  S
C1811      C1812   1.405       .  A
C1811      C1816   1.398       .  A
C1811      H1817   1.080       .  S
C1812      C1813   1.403       .  A
C1813      C1814   1.397       .  A
C1813      H1818   1.080       .  S
C1814      C1815   1.401       .  A
C1814      H1819   1.083       .  S
C1815      C1816   1.401       .  A
C1816      H1820   1.083       .  S
C1821      C1822   1.405       .  A
C1821      C1826   1.402       .  A
C1821      H1827   1.082       .  S
C1822      C1823   1.404       .  A
C1823      C1824   1.395       .  A
C1823      H1828   1.077       .  S
C1824      C1825   1.399       .  A
C1824      H1829   1.084       .  S
C1825      C1826   1.404       .  A
C1826      H1830   1.083       .  S
C1831      C1832   1.405       .  A
C1831      C1836   1.394       .  A
C1831      H1837   1.078       .  S
C1832      C1833   1.404       .  A
C1833      C1834   1.400       .  A
C1833      H1838   1.081       .  S
C1834      C1835   1.403       .  A
C1834      H1839   1.083       .  S
C1835      C1836   1.399       .  A
C1836      H1840   1.084       .  S
C1841      C1842   1.406       .  A
C1841      C1846   1.400       .  A
C1841      H1847   1.080       .  S
C1842      C1843   1.403       .  A
C1843      C1844   1.398       .  A
C1843      H1848   1.080       .  S
C1844      C1845   1.401       .  A
C1844      H1849   1.084       .  S
C1845      C1846   1.401       .  A
C1851      C1852   1.404       .  A
C1851      C1856   1.394       .  A
C1851      H1857   1.077       .  S
C1852      C1853   1.404       .  A
C1853      C1854   1.400       .  A
C1853      H1858   1.082       .  S
C1854      C1855   1.403       .  A
C1854      H1859   1.083       .  S
C1855      C1856   1.398       .  A
C1856      H1860   1.084       .  S
C1861      C1862   1.399       .  A
C1861      C1866   1.395       .  A
C1861      H1867   1.084       .  S
C1862      C1863   1.403       .  A
C1863      C1864   1.401       .  A
C1863      H1868   1.083   1_655  S
C1864      C1865   1.404       .  A
C1864      H1869   1.081       .  S
C1865      C1866   1.405       .  A
C1866      H1870   1.078       .  S
C1871      C1872   1.404       .  A
C1871      C1876   1.398       .  A
C1871      H1877   1.080       .  S
C1872      C1873   1.406       .  A
C1873      C1874   1.400       .  A
C1873      H1878   1.080       .  S
C1874      C1875   1.401       .  A
C1874      H1879   1.083       .  S
C1875      C1876   1.401       .  A
C1876      H1880   1.084       .  S
C1881      C1882   1.404       .  A
C1881      C1886   1.394       .  A
C1881      H1887   1.078       .  S
C1882      C1883   1.404       .  A
C1883      C1884   1.400       .  A
C1883      H1888   1.081       .  S
C1884      C1885   1.403       .  A
C1884      H1889   1.083       .  S
C1885      C1886   1.398       .  A
C1886      H2698   1.084       .  S
H1890      C2694   1.084       .  S
C1891      C1892   1.404       .  A
C1891      C1896   1.395       .  A
C1891      H1897   1.077       .  S
C1892      C1893   1.405       .  A
C1893      C1894   1.402       .  A
C1893      H1898   1.082       .  S
C1894      C1895   1.404       .  A
C1894      H1899   1.083       .  S
C1895      C1896   1.398       .  A
C1896      H1900   1.084       .  S
C1901      C1902   1.400       .  A
C1901      C1906   1.396       .  A
C1901      H1907   1.084       .  S
C1902      C1903   1.401       .  A
C1903      C1904   1.399       .  A
C1903      H1908   1.083       .  S
C1904      C1905   1.405       .  A
C1904      H1909   1.080       .  S
C1905      C1906   1.403       .  A
C1906      H1910   1.079       .  S
C1911      C1912   1.405       .  A
C1911      C1916   1.401       .  A
C1911      H1917   1.081       .  S
C1912      C1913   1.405       .  A
C1913      C1914   1.394       .  A
C1913      H1918   1.078       .  S
C1914      C1915   1.398       .  A
C1914      H2727   1.084       .  S
C1915      C1916   1.403       .  A
C1916      H1920   1.083       .  S
H1919      C2722   1.084       .  S
C1921      C1922   1.405       .  A
C1921      C1926   1.402       .  A
C1921      H1927   1.082       .  S
C1922      C1923   1.404       .  A
C1923      C1924   1.394       .  A
C1923      H1928   1.077       .  S
C1924      C1925   1.398       .  A
C1924      H2333   1.084       .  S
C1925      C1926   1.404       .  A
C1926      H2738   1.083       .  S
H1929      C2328   1.084       .  S
H1930      C2734   1.083   1_545  S
C1931      C1932   1.405       .  A
C1931      C1936   1.403       .  A
C1931      H1937   1.082       .  S
C1932      C1933   1.404       .  A
C1933      C1934   1.395       .  A
C1933      H1938   1.077       .  S
C1934      C1935   1.398       .  A
C1934      H1939   1.084       .  S
C1935      C1936   1.404       .  A
C1936      H1940   1.083       .  S
C1941      C1942   1.404       .  A
C1941      C1946   1.400       .  A
C1941      H1947   1.081       .  S
C1942      C1943   1.404       .  A
C1943      C1944   1.393       .  A
C1943      H1948   1.078       .  S
C1944      C1945   1.398       .  A
C1944      H1949   1.084       .  S
C1945      C1946   1.403       .  A
C1946      H2354   1.083       .  S
H1950      C2350   1.083   1_554  S
C1951      C1952   1.405       .  A
C1951      C1956   1.399       .  A
C1951      H1957   1.080       .  S
C1952      C1953   1.403       .  A
C1953      C1954   1.397       .  A
C1953      H1958   1.079       .  S
C1954      C1955   1.401       .  A
C1954      H1959   1.084       .  S
C1955      C1956   1.401       .  A
C1956      H2364   1.083       .  S
H1960      C2360   1.083   1_554  S
C1961      C1962   1.403       .  A
C1961      C1966   1.400       .  A
C1961      H1967   1.083       .  S
C1962      C1963   1.398       .  A
C1963      C1964   1.393       .  A
C1963      H2372   1.084       .  S
C1964      C1965   1.404       .  A
C1964      H1969   1.077       .  S
C1965      C1966   1.404       .  A
C1966      H1970   1.082       .  S
H1968      C2367   1.084   1_554  S
C1971      C1972   1.405       .  A
C1971      C1976   1.395       .  A
C1971      H1977   1.078       .  S
C1972      C1973   1.405       .  A
C1973      C1974   1.401       .  A
C1973      H1978   1.081       .  S
C1974      C1975   1.403       .  A
C1974      H1979   1.083   1_655  S
C1975      C1976   1.399       .  A
C1976      H1980   1.084       .  S
C1981      C1982   1.405       .  A
C1981      C1986   1.399       .  A
C1981      H1987   1.080       .  S
C1982      C1983   1.403       .  A
C1983      C1984   1.397       .  A
C1983      H1988   1.079       .  S
C1984      C1985   1.401       .  A
C1984      H2393   1.084       .  S
C1985      C1986   1.401       .  A
H1989      C2388   1.083   1_554  S
C1991      C1992   1.405       .  A
C1991      C1996   1.395       .  A
C1991      H1997   1.078       .  S
C1992      C1993   1.404       .  A
C1993      C1994   1.401       .  A
C1993      H1998   1.081       .  S
C1994      C1995   1.403       .  A
C1994      H1999   1.083       .  S
C1995      C1996   1.399       .  A
C1996      H2000   1.084       .  S
C2001      C2002   1.405       .  A
C2001      C2006   1.399       .  A
C2001      H2007   1.080       .  S
C2002      C2003   1.403       .  A
C2003      C2004   1.396       .  A
C2003      H2008   1.079       .  S
C2004      C2005   1.400       .  A
C2005      C2006   1.401       .  A
C2006      H2010   1.083       .  S
C2011      C2012   1.403       .  A
C2011      C2016   1.394       .  A
C2011      H2017   1.076       .  S
C2012      C2013   1.404       .  A
C2013      C2014   1.401       .  A
C2013      H2018   1.082       .  S
C2014      C2015   1.403       .  A
C2014      H2019   1.083       .  S
C2015      C2016   1.398       .  A
C2021      H2022   1.066       .  S
C2021      C2027   1.580       .  S
C2021      C2026   1.582       .  S
C2021      C2025   1.579       .  S
C2023      H2024   1.118       .  S
C2023      C2029   1.508       .  S
C2023      C2028   1.511       .  S
C2023      C2030   1.510       .  S
C2025      C2028   1.386       .  D
C2025      C2076   1.548       .  S
C2026      C2029   1.388       .  D
C2026      C2058   1.547       .  S
C2027      C2030   1.388       .  D
C2027      C2039   1.548       .  S
C2028      C2416   1.470       .  S
C2029      C2396   1.474       .  S
C2030      C2406   1.474       .  S
C2031      H2032   1.118       .  S
C2031      C2037   1.509       .  S
C2031      C2036   1.509       .  S
C2031      C2035   1.512       .  S
C2033      H2034   1.067       .  S
C2033      C2039   1.581       .  S
C2033      C2038   1.579       .  S
C2033      C2040   1.582       .  S
C2035      C2038   1.388       .  D
C2035      C2369   1.473       .  S
C2036      C2039   1.388       .  D
C2036      C2386   1.475       .  S
C2037      C2040   1.389       .  D
C2037      C2376   1.475       .  S
C2038      C2046   1.549       .  S
C2040      C2095   1.549       .  S
C2041      H2042   1.067       .  S
C2041      C2047   1.580       .  S
C2041      C2046   1.581       .  S
C2041      C2045   1.580       .  S
C2043      H2044   1.118       .  S
C2043      C2049   1.509       .  S
C2043      C2048   1.511       .  S
C2043      C2050   1.510       .  S
C2045      C2048   1.389       .  D
C2045      C2090   1.547       .  S
C2046      C2049   1.388       .  D
C2047      C2050   1.387       .  D
C2047      C2059   1.549       .  S
C2048      C2336   1.477       .  S
C2049      C2346   1.471       .  S
C2050      C2356   1.472       .  S
C2051      H2052   1.118       .  S
C2051      C2057   1.509       .  S
C2051      C2056   1.510       .  S
C2051      C2055   1.511       .  S
C2053      H2054   1.066       .  S
C2053      C2059   1.579       .  S
C2053      C2058   1.579       .  S
C2053      C2060   1.581       .  S
C2055      C2058   1.389       .  D
C2055      C2326   1.477       .  S
C2056      C2059   1.387       .  D
C2056      C2309   1.470       .  S
C2057      C2060   1.388       .  D
C2057      C2316   1.473       .  S
C2060      C2065   1.547       .  S
C2061      H2062   1.067       .  S
C2061      C2067   1.579       .  S
C2061      C2066   1.580       .  S
C2061      C2065   1.580       .  S
C2063      H2064   1.118       .  S
C2063      C2069   1.508       .  S
C2063      C2068   1.510       .  S
C2063      C2070   1.509       .  S
C2065      C2068   1.388       .  D
C2066      C2069   1.388       .  D
C2066      C2075   1.548       .  S
C2067      C2070   1.388       .  D
C2067      C2089   1.548       .  S
C2068      C2296   1.477       .  S
C2069      C2286   1.471       .  S
C2070      C2276   1.472       .  S
C2071      H2072   1.067       .  S
C2071      C2077   1.580       .  S
C2071      C2076   1.581       .  S
C2071      C2075   1.578       .  S
C2073      H2074   1.118       .  S
C2073      C2079   1.508       .  S
C2073      C2078   1.510       .  S
C2073      C2080   1.509       .  S
C2075      C2078   1.386       .  D
C2076      C2079   1.390       .  D
C2077      C2080   1.388       .  D
C2077      C2097   1.547       .  S
C2078      C2256   1.470       .  S
C2079      C2269   1.474       .  S
C2080      C2246   1.474       .  S
C2081      H2082   1.118       .  S
C2081      C2087   1.509       .  S
C2081      C2086   1.510       .  S
C2081      C2085   1.511       .  S
C2083      H2084   1.067       .  S
C2083      C2089   1.579       .  S
C2083      C2088   1.580       .  S
C2083      C2090   1.581       .  S
C2085      C2088   1.388       .  D
C2085      C2226   1.476       .  S
C2086      C2089   1.386       .  D
C2086      C2216   1.470       .  S
C2087      C2090   1.388       .  D
C2087      C2236   1.472       .  S
C2088      C2096   1.549       .  S
C2091      H2092   1.066       .  S
C2091      C2097   1.580       .  S
C2091      C2096   1.582       .  S
C2091      C2095   1.579       .  S
C2093      H2094   1.118       .  S
C2093      C2099   1.509       .  S
C2093      C2098   1.512       .  S
C2093      C2100   1.510       .  S
C2095      C2098   1.388       .  D
C2096      C2099   1.389       .  D
C2097      C2100   1.386       .  D
C2098      C2206   1.474       .  S
C2099      C2186   1.474       .  S
C2100      C2196   1.472       .  S
O2101      V2109   1.889       .  S
O2102      V2109   1.890       .  S
O2102      C2112   1.256       .  A
O2103      V2109   1.889   1_565  S
O2103      C2921   1.256       .  A
O2104      V2109   1.890       .  S
O2105      V2110   1.919       .  S
O2106      V2110   1.918       .  S
O2106      C2921   1.270   1_545  A
O2107      V2110   1.919       .  S
O2107      C2112   1.270       .  A
O2108      V2110   1.918       .  S
V2109      V2110   2.045       .  T
C2111      C2419   1.462       .  S
C2112      C2339   1.466       .  S
C2113      O2911   1.256       .  A
C2113      O2914   1.270       .  A
C2113      C2319   1.464       .  S
C2114      C2379   1.465       .  S
O2115      V2123   1.918       .  S
O2116      V2123   1.918       .  S
O2116      C2126   1.270       .  A
O2117      V2123   1.920       .  S
O2117      C2935   1.270   1_545  A
O2118      V2123   1.919       .  S
O2119      V2124   1.889       .  S
O2120      V2124   1.890       .  S
O2120      C2935   1.256   1_545  A
O2121      V2124   1.889       .  S
O2121      C2126   1.256       .  A
O2122      V2124   1.890   1_565  S
V2123      V2124   2.044       .  T
C2125      C2266   1.465       .  S
C2126      C2239   1.463       .  S
C2127      O2925   1.270       .  A
C2127      O2928   1.257       .  A
C2127      C2299   1.466       .  S
C2128      C2209   1.464       .  S
O2129      V2137   1.888       .  S
O2129      C2947   1.256   1_545  A
O2130      V2137   1.887       .  S
O2131      V2137   1.888   1_565  S
O2131      C2545   1.256       .  A
O2132      V2137   1.889       .  S
O2132      C2142   1.257       .  A
O2133      V2138   1.920       .  S
O2133      C2142   1.270       .  A
O2134      V2138   1.919       .  S
O2134      C2545   1.270   1_545  A
O2135      V2138   1.917       .  S
O2136      V2138   1.917       .  S
O2136      C2947   1.270   1_545  A
V2137      V2138   2.045       .  T
C2139      O2937   1.256       .  A
C2139      O2944   1.269       .  A
C2139      C2259   1.460       .  S
C2140      C2366   1.462       .  S
C2141      O2535   1.256   1_556  A
C2141      O2538   1.270   1_556  A
C2141      C2399   1.466       .  S
C2142      C2189   1.466       .  S
O2143      V2151   1.884       .  S
O2143      C2153   1.255       .  A
O2144      V2151   1.884       .  S
O2145      V2151   1.885       .  S
O2146      V2151   1.884       .  S
O2147      V2152   1.921       .  S
O2148      V2152   1.920       .  S
O2149      V2152   1.920       .  S
O2150      V2152   1.919       .  S
O2150      C2153   1.270       .  A
V2151      V2152   2.054       .  T
C2153      C2279   1.462       .  S
C2154      C2409   1.465       .  S
C2155      C2306   1.461       .  S
C2156      C2249   1.464       .  S
O2157      V2165   1.917       .  S
O2157      C2975   1.270   1_545  A
O2158      V2165   1.917       .  S
O2159      V2165   1.919       .  S
O2159      C2573   1.270   1_545  A
O2160      V2165   1.920       .  S
O2160      C2170   1.270       .  A
O2161      V2166   1.890       .  S
O2161      C2170   1.257       .  A
O2162      V2166   1.890       .  S
O2162      C2573   1.257   1_545  A
O2163      V2166   1.887       .  S
O2164      V2166   1.888   1_565  S
O2164      C2975   1.256       .  A
V2165      V2166   2.046       .  T
C2167      O2965   1.270       .  A
C2167      O2972   1.256       .  A
C2167      C2289   1.461       .  S
C2168      C2349   1.462       .  S
C2169      O2563   1.271   1_556  A
C2169      O2566   1.257       .  A
C2169      C2329   1.467       .  S
C2170      C2229   1.466       .  S
O2171      V2179   1.886       .  S
O2172      V2179   1.885       .  S
O2173      V2179   1.884       .  S
O2173      C2183   1.256       .  A
O2174      V2179   1.884       .  S
O2175      V2180   1.919       .  S
O2176      V2180   1.918       .  S
O2176      C2183   1.269       .  A
O2177      V2180   1.920       .  S
O2178      V2180   1.920       .  S
V2179      V2180   2.054       .  T
C2181      C2359   1.462       .  S
C2182      C2199   1.463       .  S
C2183      C2219   1.461       .  S
C2184      C2389   1.466       .  S
C2185      C2186   1.405       .  A
C2185      C2190   1.396       .  A
C2185      H2191   1.079       .  S
C2186      C2187   1.404       .  A
C2187      C2188   1.401       .  A
C2187      H2192   1.081       .  S
C2188      C2189   1.403       .  A
C2188      H2193   1.083       .  S
C2189      C2190   1.399       .  A
C2190      H2194   1.084       .  S
C2195      C2196   1.405       .  A
C2195      C2200   1.399       .  A
C2195      H2201   1.080       .  S
C2196      C2197   1.403       .  A
C2197      C2198   1.397       .  A
C2197      H2202   1.079       .  S
C2198      C2199   1.401       .  A
C2199      C2200   1.401       .  A
C2200      H2204   1.083       .  S
C2205      C2206   1.404       .  A
C2205      C2210   1.401       .  A
C2205      H2211   1.082       .  S
C2206      C2207   1.404       .  A
C2207      C2208   1.394       .  A
C2207      H2212   1.077       .  S
C2208      C2209   1.398       .  A
C2208      H2213   1.084   1_655  S
C2209      C2210   1.404       .  A
C2210      H2214   1.083       .  S
C2215      C2216   1.405       .  A
C2215      C2220   1.399       .  A
C2215      H2221   1.080       .  S
C2216      C2217   1.402       .  A
C2217      C2218   1.395       .  A
C2217      H2222   1.079       .  S
C2218      C2219   1.400       .  A
C2218      H2223   1.084       .  S
C2219      C2220   1.401       .  A
C2220      H2224   1.083       .  S
C2225      C2226   1.405       .  A
C2225      C2230   1.403       .  A
C2225      H2231   1.082       .  S
C2226      C2227   1.404       .  A
C2227      C2228   1.395       .  A
C2227      H2232   1.077       .  S
C2228      C2229   1.398       .  A
C2228      H2233   1.084       .  S
C2229      C2230   1.404       .  A
C2230      H2234   1.083       .  S
C2235      C2236   1.405       .  A
C2235      C2240   1.394       .  A
C2235      H2241   1.078       .  S
C2236      C2237   1.405       .  A
C2237      C2238   1.401       .  A
C2237      H2242   1.081       .  S
C2238      C2239   1.403       .  A
C2238      H2243   1.083       .  S
C2239      C2240   1.399       .  A
C2240      H2244   1.084       .  S
C2245      C2246   1.405       .  A
C2245      C2250   1.399       .  A
C2245      H2251   1.080       .  S
C2246      C2247   1.403       .  A
C2247      C2248   1.397       .  A
C2247      H2252   1.079       .  S
C2248      C2249   1.401       .  A
C2248      H2253   1.084       .  S
C2249      C2250   1.401       .  A
C2255      C2256   1.403       .  A
C2255      C2260   1.393       .  A
C2255      H2261   1.077       .  S
C2256      C2257   1.404       .  A
C2257      C2258   1.399       .  A
C2257      H2262   1.082       .  S
C2258      C2259   1.402       .  A
C2258      H2263   1.083       .  S
C2259      C2260   1.398       .  A
C2260      H2264   1.084       .  S
C2265      C2266   1.399       .  A
C2265      C2270   1.395       .  A
C2265      H2271   1.084       .  S
C2266      C2267   1.403       .  A
C2267      C2268   1.401       .  A
C2267      H2272   1.083   1_655  S
C2268      C2269   1.404       .  A
C2268      H2273   1.081       .  S
C2269      C2270   1.405       .  A
C2270      H2274   1.078       .  S
C2275      C2276   1.403       .  A
C2275      C2280   1.396       .  A
C2275      H2281   1.079       .  S
C2276      C2277   1.405       .  A
C2277      C2278   1.399       .  A
C2277      H2282   1.080       .  S
C2278      C2279   1.401       .  A
C2278      H2283   1.083       .  S
C2279      C2280   1.400       .  A
C2280      H2284   1.084       .  S
C2285      C2286   1.404       .  A
C2285      C2290   1.393       .  A
C2285      H2291   1.078       .  S
C2286      C2287   1.404       .  A
C2287      C2288   1.400       .  A
C2287      H2292   1.081       .  S
C2288      C2289   1.403       .  A
C2288      H2293   1.083       .  S
C2289      C2290   1.398       .  A
C2290      H3102   1.084       .  S
H2294      C3098   1.084       .  S
C2295      C2296   1.404       .  A
C2295      C2300   1.394       .  A
C2295      H2301   1.076       .  S
C2296      C2297   1.405       .  A
C2297      C2298   1.403       .  A
C2297      H2302   1.082       .  S
C2298      C2299   1.404       .  A
C2298      H2303   1.083       .  S
C2299      C2300   1.398       .  A
C2300      H2304   1.084       .  S
C2305      C2306   1.400       .  A
C2305      C2310   1.396       .  A
C2305      H2311   1.084   1_556  S
C2306      C2307   1.401       .  A
C2307      C2308   1.398       .  A
C2307      H2312   1.083       .  S
C2308      C2309   1.405       .  A
C2308      H2313   1.080       .  S
C2309      C2310   1.403       .  A
C2310      H2314   1.079       .  S
C2315      C2316   1.405       .  A
C2315      C2320   1.401       .  A
C2315      H2321   1.081       .  S
C2316      C2317   1.404       .  A
C2317      C2318   1.394       .  A
C2317      H2322   1.078       .  S
C2318      C2319   1.398       .  A
C2318      H3131   1.084       .  S
C2319      C2320   1.403       .  A
C2320      H2324   1.083       .  S
H2323      C3126   1.084       .  S
C2325      C2326   1.405       .  A
C2325      C2330   1.403       .  A
C2325      H2331   1.082       .  S
C2326      C2327   1.404       .  A
C2327      C2328   1.395       .  A
C2327      H2332   1.076       .  S
C2328      C2329   1.399       .  A
C2329      C2330   1.404       .  A
C2330      H3142   1.083       .  S
H2334      C3138   1.083   1_545  S
C2335      C2336   1.405       .  A
C2335      C2340   1.402       .  A
C2335      H2341   1.082       .  S
C2336      C2337   1.404       .  A
C2337      C2338   1.395       .  A
C2337      H2342   1.077       .  S
C2338      C2339   1.398       .  A
C2338      H2343   1.084       .  S
C2339      C2340   1.404       .  A
C2340      H2344   1.083       .  S
C2345      C2346   1.404       .  A
C2345      C2350   1.400       .  A
C2345      H2351   1.081       .  S
C2346      C2347   1.404       .  A
C2347      C2348   1.394       .  A
C2347      H2352   1.078       .  S
C2348      C2349   1.398       .  A
C2348      H2353   1.084       .  S
C2349      C2350   1.403       .  A
C2355      C2356   1.405       .  A
C2355      C2360   1.399       .  A
C2355      H2361   1.080       .  S
C2356      C2357   1.403       .  A
C2357      C2358   1.397       .  A
C2357      H2362   1.079       .  S
C2358      C2359   1.400       .  A
C2358      H2363   1.084       .  S
C2359      C2360   1.401       .  A
C2365      C2366   1.403       .  A
C2365      C2370   1.400       .  A
C2365      H2371   1.083       .  S
C2366      C2367   1.398       .  A
C2367      C2368   1.394       .  A
C2368      C2369   1.404       .  A
C2368      H2373   1.077       .  S
C2369      C2370   1.404       .  A
C2370      H2374   1.082       .  S
C2375      C2376   1.405       .  A
C2375      C2380   1.395       .  A
C2375      H2381   1.078       .  S
C2376      C2377   1.405       .  A
C2377      C2378   1.401       .  A
C2377      H2382   1.081       .  S
C2378      C2379   1.403       .  A
C2378      H2383   1.083   1_655  S
C2379      C2380   1.399       .  A
C2380      H2384   1.084       .  S
C2385      C2386   1.405       .  A
C2385      C2390   1.399       .  A
C2385      H2391   1.080       .  S
C2386      C2387   1.404       .  A
C2387      C2388   1.399       .  A
C2387      H2392   1.080       .  S
C2388      C2389   1.402       .  A
C2389      C2390   1.401       .  A
C2395      C2396   1.405       .  A
C2395      C2400   1.396       .  A
C2395      H2401   1.078       .  S
C2396      C2397   1.404       .  A
C2397      C2398   1.400       .  A
C2397      H2402   1.081       .  S
C2398      C2399   1.403       .  A
C2398      H2403   1.083   1_556  S
C2399      C2400   1.399       .  A
C2400      H2404   1.084       .  S
C2405      C2406   1.405       .  A
C2405      C2410   1.399       .  A
C2405      H2411   1.080       .  S
C2406      C2407   1.403       .  A
C2407      C2408   1.398       .  A
C2407      H2412   1.080       .  S
C2408      C2409   1.401       .  A
C2409      C2410   1.401       .  A
C2410      H2414   1.083   1_556  S
C2415      C2416   1.403       .  A
C2415      C2420   1.393       .  A
C2415      H2421   1.077       .  S
C2416      C2417   1.404       .  A
C2417      C2418   1.400       .  A
C2417      H2422   1.082       .  S
C2418      C2419   1.403       .  A
C2418      H2423   1.083       .  S
C2419      C2420   1.398       .  A
C2425      H2426   1.067       .  S
C2425      C2431   1.580       .  S
C2425      C2430   1.582       .  S
C2425      C2429   1.579       .  S
C2427      H2428   1.118       .  S
C2427      C2433   1.508       .  S
C2427      C2432   1.511       .  S
C2427      C2434   1.509       .  S
C2429      C2432   1.387       .  D
C2429      C2480   1.549       .  S
C2430      C2433   1.388       .  D
C2430      C2462   1.547       .  S
C2431      C2434   1.387       .  D
C2431      C2443   1.548       .  S
C2432      C2820   1.472       .  S
C2433      C2800   1.472       .  S
C2434      C2810   1.473       .  S
C2435      H2436   1.118       .  S
C2435      C2441   1.509       .  S
C2435      C2440   1.509       .  S
C2435      C2439   1.511       .  S
C2437      H2438   1.066       .  S
C2437      C2443   1.579       .  S
C2437      C2442   1.578       .  S
C2437      C2444   1.581       .  S
C2439      C2442   1.388       .  D
C2439      C2773   1.473       .  S
C2440      C2443   1.387       .  D
C2440      C2790   1.472       .  S
C2441      C2444   1.389       .  D
C2441      C2780   1.475       .  S
C2442      C2450   1.548       .  S
C2444      C2499   1.548       .  S
C2445      H2446   1.067       .  S
C2445      C2451   1.580       .  S
C2445      C2450   1.581       .  S
C2445      C2449   1.579       .  S
C2447      H2448   1.118       .  S
C2447      C2453   1.509       .  S
C2447      C2452   1.511       .  S
C2447      C2454   1.510       .  S
C2449      C2452   1.389       .  D
C2449      C2494   1.549       .  S
C2450      C2453   1.388       .  D
C2451      C2454   1.388       .  D
C2451      C2463   1.548       .  S
C2452      C2740   1.476       .  S
C2453      C2750   1.472       .  S
C2454      C2760   1.473       .  S
C2455      H2456   1.118       .  S
C2455      C2461   1.508       .  S
C2455      C2460   1.509       .  S
C2455      C2459   1.511       .  S
C2457      H2458   1.066       .  S
C2457      C2463   1.580       .  S
C2457      C2462   1.579       .  S
C2457      C2464   1.581       .  S
C2459      C2462   1.388       .  D
C2459      C2730   1.475       .  S
C2460      C2463   1.387       .  D
C2460      C2713   1.472       .  S
C2461      C2464   1.388       .  D
C2461      C2720   1.472       .  S
C2464      C2469   1.547       .  S
C2465      H2466   1.067       .  S
C2465      C2471   1.579       .  S
C2465      C2470   1.580       .  S
C2465      C2469   1.580       .  S
C2467      H2468   1.118       .  S
C2467      C2473   1.509       .  S
C2467      C2472   1.510       .  S
C2467      C2474   1.510       .  S
C2469      C2472   1.388       .  D
C2470      C2473   1.389       .  D
C2470      C2479   1.549       .  S
C2471      C2474   1.389       .  D
C2471      C2493   1.549       .  S
C2472      C2700   1.476       .  S
C2473      C2690   1.472       .  S
C2474      C2680   1.475       .  S
C2475      H2476   1.067       .  S
C2475      C2481   1.581       .  S
C2475      C2480   1.581       .  S
C2475      C2479   1.580       .  S
C2477      H2478   1.118       .  S
C2477      C2483   1.509       .  S
C2477      C2482   1.511       .  S
C2477      C2484   1.509       .  S
C2479      C2482   1.387       .  D
C2480      C2483   1.389       .  D
C2481      C2484   1.388       .  D
C2481      C2501   1.548       .  S
C2482      C2660   1.473       .  S
C2483      C2673   1.474       .  S
C2484      C2650   1.475       .  S
C2485      H2486   1.118       .  S
C2485      C2491   1.509       .  S
C2485      C2490   1.509       .  S
C2485      C2489   1.511       .  S
C2487      H2488   1.067       .  S
C2487      C2493   1.581       .  S
C2487      C2492   1.581       .  S
C2487      C2494   1.581       .  S
C2489      C2492   1.388       .  D
C2489      C2630   1.476       .  S
C2490      C2493   1.386       .  D
C2490      C2620   1.472       .  S
C2491      C2494   1.387       .  D
C2491      C2640   1.471       .  S
C2492      C2500   1.548       .  S
C2495      H2496   1.066       .  S
C2495      C2501   1.579       .  S
C2495      C2500   1.581       .  S
C2495      C2499   1.579       .  S
C2497      H2498   1.118       .  S
C2497      C2503   1.509       .  S
C2497      C2502   1.511       .  S
C2497      C2504   1.510       .  S
C2499      C2502   1.387       .  D
C2500      C2503   1.389       .  D
C2501      C2504   1.387       .  D
C2502      C2610   1.473       .  S
C2503      C2590   1.475       .  S
C2504      C2600   1.471       .  S
O2505      V2513   1.890       .  S
O2506      V2513   1.890       .  S
O2506      C2516   1.256       .  A
O2507      V2513   1.890       .  S
O2508      V2513   1.890       .  S
O2509      V2514   1.918       .  S
O2510      V2514   1.918       .  S
O2511      V2514   1.920       .  S
O2511      C2516   1.270       .  A
O2512      V2514   1.918       .  S
V2513      V2514   2.044       .  T
C2515      C2823   1.463       .  S
C2516      C2743   1.466       .  S
C2517      C2723   1.463       .  S
C2518      C2783   1.465       .  S
O2519      V2527   1.919       .  S
O2520      V2527   1.918       .  S
O2520      C2530   1.270       .  A
O2521      V2527   1.920       .  S
O2522      V2527   1.919       .  S
O2523      V2528   1.888       .  S
O2524      V2528   1.890       .  S
O2525      V2528   1.889       .  S
O2525      C2530   1.256       .  A
O2526      V2528   1.890       .  S
V2527      V2528   2.044       .  T
C2529      C2670   1.465       .  S
C2530      C2643   1.463       .  S
C2531      C2703   1.466       .  S
C2532      C2613   1.463       .  S
O2533      V2541   1.888       .  S
O2534      V2541   1.887   1_556  S
O2534      C2948   1.256       .  A
O2535      V2541   1.889       .  S
O2536      V2541   1.889       .  S
O2536      C2546   1.257       .  A
O2537      V2542   1.921       .  S
O2537      C2546   1.270       .  A
O2538      V2542   1.920       .  S
O2539      V2542   1.918       .  S
O2539      C2948   1.270   1_554  A
O2540      V2542   1.918       .  S
V2541      V2542   2.046       .  T
C2543      C2663   1.463       .  S
C2544      O2938   1.256       .  A
C2544      O2943   1.270       .  A
C2544      C2770   1.462       .  S
C2545      C2803   1.464       .  S
C2546      C2593   1.466       .  S
O2547      V2555   1.886       .  S
O2547      C2557   1.256       .  A
O2548      V2555   1.885       .  S
O2549      V2555   1.884   1_556  S
O2549      C2963   1.255       .  A
O2550      V2555   1.884       .  S
O2551      V2556   1.921       .  S
O2552      V2556   1.920       .  S
O2552      C2963   1.270   1_554  A
O2553      V2556   1.922       .  S
O2554      V2556   1.922       .  S
O2554      C2557   1.270       .  A
V2555      V2556   2.052       .  T
C2557      C2683   1.466       .  S
C2558      C2813   1.462       .  S
C2559      O2953   1.255       .  A
C2559      O2956   1.270       .  A
C2559      C2710   1.463       .  S
C2560      C2653   1.464       .  S
O2561      V2569   1.917       .  S
O2562      V2569   1.918       .  S
O2562      C2976   1.270   1_554  A
O2563      V2569   1.921       .  S
O2564      V2569   1.921       .  S
O2564      C2574   1.270       .  A
O2565      V2570   1.890       .  S
O2565      C2574   1.256       .  A
O2566      V2570   1.891   1_556  S
O2567      V2570   1.888       .  S
O2567      C2976   1.256   1_554  A
O2568      V2570   1.888       .  S
V2569      V2570   2.046       .  T
C2571      C2693   1.463       .  S
C2572      O2966   1.270       .  A
C2572      O2971   1.256       .  A
C2572      C2753   1.462       .  S
C2573      C2733   1.465       .  S
C2574      C2633   1.466       .  S
O2575      V2583   1.884       .  S
O2575      C2989   1.255   1_554  A
O2576      V2583   1.883       .  S
O2577      V2583   1.884       .  S
O2577      C2587   1.255       .  A
O2578      V2583   1.885   1_556  S
O2579      V2584   1.923       .  S
O2580      V2584   1.921       .  S
O2580      C2587   1.270       .  A
O2581      V2584   1.919       .  S
O2582      V2584   1.919       .  S
O2582      C2989   1.269   1_554  A
V2583      V2584   2.052       .  T
C2585      O2979   1.255       .  A
C2585      O2986   1.270       .  A
C2585      C2763   1.464       .  S
C2586      C2603   1.462       .  S
C2587      C2623   1.463       .  S
C2588      C2793   1.462       .  S
C2589      C2590   1.405       .  A
C2589      C2594   1.396       .  A
C2589      H2595   1.078       .  S
C2590      C2591   1.404       .  A
C2591      C2592   1.401       .  A
C2591      H2596   1.081       .  S
C2592      C2593   1.403       .  A
C2592      H2597   1.083       .  S
C2593      C2594   1.399       .  A
C2594      H2598   1.084       .  S
C2599      C2600   1.404       .  A
C2599      C2604   1.398       .  A
C2599      H2605   1.080       .  S
C2600      C2601   1.403       .  A
C2601      C2602   1.397       .  A
C2601      H2606   1.079       .  S
C2602      C2603   1.400       .  A
C2603      C2604   1.401       .  A
C2604      H2608   1.083       .  S
C2609      C2610   1.404       .  A
C2609      C2614   1.401       .  A
C2609      H2615   1.082       .  S
C2610      C2611   1.404       .  A
C2611      C2612   1.394       .  A
C2611      H2616   1.077       .  S
C2612      C2613   1.398       .  A
C2612      H2617   1.084   1_655  S
C2613      C2614   1.403       .  A
C2614      H2618   1.083       .  S
C2619      C2620   1.404       .  A
C2619      C2624   1.398       .  A
C2619      H2625   1.080       .  S
C2620      C2621   1.403       .  A
C2621      C2622   1.397       .  A
C2621      H2626   1.079       .  S
C2622      C2623   1.401       .  A
C2622      H2627   1.083       .  S
C2623      C2624   1.401       .  A
C2624      H2628   1.083       .  S
C2629      C2630   1.405       .  A
C2629      C2634   1.402       .  A
C2629      H2635   1.082       .  S
C2630      C2631   1.404       .  A
C2631      C2632   1.395       .  A
C2631      H2636   1.077       .  S
C2632      C2633   1.399       .  A
C2632      H2637   1.084       .  S
C2633      C2634   1.404       .  A
C2634      H2638   1.083       .  S
C2639      C2640   1.404       .  A
C2639      C2644   1.394       .  A
C2639      H2645   1.078       .  S
C2640      C2641   1.404       .  A
C2641      C2642   1.400       .  A
C2641      H2646   1.081       .  S
C2642      C2643   1.403       .  A
C2642      H2647   1.083       .  S
C2643      C2644   1.399       .  A
C2644      H2648   1.084       .  S
C2649      C2650   1.405       .  A
C2649      C2654   1.400       .  A
C2649      H2655   1.080       .  S
C2650      C2651   1.403       .  A
C2651      C2652   1.397       .  A
C2651      H2656   1.079       .  S
C2652      C2653   1.401       .  A
C2652      H2657   1.084       .  S
C2653      C2654   1.401       .  A
C2659      C2660   1.404       .  A
C2659      C2664   1.394       .  A
C2659      H2665   1.077       .  S
C2660      C2661   1.404       .  A
C2661      C2662   1.400       .  A
C2661      H2666   1.082       .  S
C2662      C2663   1.403       .  A
C2662      H2667   1.083   1_565  S
C2663      C2664   1.398       .  A
C2664      H2668   1.084       .  S
C2669      C2670   1.399       .  A
C2669      C2674   1.395       .  A
C2669      H2675   1.084       .  S
C2670      C2671   1.403       .  A
C2671      C2672   1.401       .  A
C2671      H2676   1.083   1_655  S
C2672      C2673   1.404       .  A
C2672      H2677   1.081       .  S
C2673      C2674   1.405       .  A
C2674      H2678   1.078       .  S
C2679      C2680   1.404       .  A
C2679      C2684   1.398       .  A
C2679      H2685   1.080       .  S
C2680      C2681   1.405       .  A
C2681      C2682   1.400       .  A
C2681      H2686   1.080       .  S
C2682      C2683   1.401       .  A
C2682      H2687   1.083       .  S
C2683      C2684   1.401       .  A
C2684      H2688   1.084       .  S
C2689      C2690   1.405       .  A
C2689      C2694   1.394       .  A
C2689      H2695   1.078       .  S
C2690      C2691   1.404       .  A
C2691      C2692   1.400       .  A
C2691      H2696   1.081       .  S
C2692      C2693   1.403       .  A
C2692      H2697   1.083       .  S
C2693      C2694   1.399       .  A
C2699      C2700   1.404       .  A
C2699      C2704   1.395       .  A
C2699      H2705   1.077       .  S
C2700      C2701   1.405       .  A
C2701      C2702   1.402       .  A
C2701      H2706   1.082       .  S
C2702      C2703   1.404       .  A
C2702      H2707   1.083   1_565  S
C2703      C2704   1.398       .  A
C2704      H2708   1.084       .  S
C2709      C2710   1.400       .  A
C2709      C2714   1.396       .  A
C2709      H2715   1.084       .  S
C2710      C2711   1.401       .  A
C2711      C2712   1.399       .  A
C2711      H2716   1.083       .  S
C2712      C2713   1.405       .  A
C2712      H2717   1.080       .  S
C2713      C2714   1.403       .  A
C2714      H2718   1.079       .  S
C2719      C2720   1.405       .  A
C2719      C2724   1.401       .  A
C2719      H2725   1.081       .  S
C2720      C2721   1.404       .  A
C2721      C2722   1.393       .  A
C2721      H2726   1.078       .  S
C2722      C2723   1.398       .  A
C2723      C2724   1.403       .  A
C2724      H2728   1.083       .  S
C2729      C2730   1.405       .  A
C2729      C2734   1.402       .  A
C2729      H2735   1.082       .  S
C2730      C2731   1.404       .  A
C2731      C2732   1.394       .  A
C2731      H2736   1.077       .  S
C2732      C2733   1.398       .  A
C2732      H3141   1.084       .  S
C2733      C2734   1.404       .  A
H2737      C3136   1.084       .  S
C2739      C2740   1.405       .  A
C2739      C2744   1.402       .  A
C2739      H2745   1.082       .  S
C2740      C2741   1.404       .  A
C2741      C2742   1.395       .  A
C2741      H2746   1.077       .  S
C2742      C2743   1.398       .  A
C2742      H2747   1.084       .  S
C2743      C2744   1.404       .  A
C2744      H2748   1.083       .  S
C2749      C2750   1.404       .  A
C2749      C2754   1.400       .  A
C2749      H2755   1.081       .  S
C2750      C2751   1.404       .  A
C2751      C2752   1.394       .  A
C2751      H2756   1.078       .  S
C2752      C2753   1.398       .  A
C2752      H2757   1.084       .  S
C2753      C2754   1.403       .  A
C2754      H3162   1.083       .  S
H2758      C3158   1.083   1_554  S
C2759      C2760   1.405       .  A
C2759      C2764   1.399       .  A
C2759      H2765   1.080       .  S
C2760      C2761   1.403       .  A
C2761      C2762   1.397       .  A
C2761      H2766   1.079       .  S
C2762      C2763   1.401       .  A
C2762      H2767   1.084       .  S
C2763      C2764   1.401       .  A
C2764      H3172   1.083       .  S
H2768      C3168   1.083   1_554  S
C2769      C2770   1.403       .  A
C2769      C2774   1.401       .  A
C2769      H2775   1.083       .  S
C2770      C2771   1.398       .  A
C2771      C2772   1.394       .  A
C2771      H3180   1.084       .  S
C2772      C2773   1.404       .  A
C2772      H2777   1.077       .  S
C2773      C2774   1.404       .  A
C2774      H2778   1.082       .  S
H2776      C3175   1.084   1_554  S
C2779      C2780   1.405       .  A
C2779      C2784   1.395       .  A
C2779      H2785   1.078       .  S
C2780      C2781   1.405       .  A
C2781      C2782   1.401       .  A
C2781      H2786   1.081       .  S
C2782      C2783   1.403       .  A
C2782      H2787   1.083   1_655  S
C2783      C2784   1.399       .  A
C2784      H2788   1.084       .  S
C2789      C2790   1.405       .  A
C2789      C2794   1.399       .  A
C2789      H2795   1.080       .  S
C2790      C2791   1.403       .  A
C2791      C2792   1.397       .  A
C2791      H2796   1.079       .  S
C2792      C2793   1.400       .  A
C2792      H3201   1.084       .  S
C2793      C2794   1.401       .  A
H2797      C3196   1.084   1_554  S
C2799      C2800   1.405       .  A
C2799      C2804   1.395       .  A
C2799      H2805   1.079       .  S
C2800      C2801   1.404       .  A
C2801      C2802   1.400       .  A
C2801      H2806   1.081       .  S
C2802      C2803   1.402       .  A
C2802      H2807   1.083       .  S
C2803      C2804   1.399       .  A
C2804      H2808   1.084   1_565  S
C2809      C2810   1.405       .  A
C2809      C2814   1.399       .  A
C2809      H2815   1.080       .  S
C2810      C2811   1.403       .  A
C2811      C2812   1.396       .  A
C2811      H2816   1.079       .  S
C2812      C2813   1.400       .  A
C2813      C2814   1.401       .  A
C2814      H2818   1.083       .  S
C2819      C2820   1.403       .  A
C2819      C2824   1.393       .  A
C2819      H2825   1.076       .  S
C2820      C2821   1.404       .  A
C2821      C2822   1.401       .  A
C2821      H2826   1.082       .  S
C2822      C2823   1.403       .  A
C2822      H2827   1.083   1_565  S
C2823      C2824   1.398       .  A
C2829      H2830   1.067       .  S
C2829      C2835   1.580       .  S
C2829      C2834   1.582       .  S
C2829      C2833   1.579       .  S
C2831      H2832   1.118       .  S
C2831      C2837   1.508       .  S
C2831      C2836   1.511       .  S
C2831      C2838   1.510       .  S
C2833      C2836   1.386       .  D
C2833      C2884   1.548       .  S
C2834      C2837   1.388       .  D
C2834      C2866   1.547       .  S
C2835      C2838   1.388       .  D
C2835      C2847   1.548       .  S
C2836      C3224   1.471       .  S
C2837      C3204   1.473       .  S
C2838      C3214   1.474       .  S
C2839      H2840   1.118       .  S
C2839      C2845   1.510       .  S
C2839      C2844   1.510       .  S
C2839      C2843   1.512       .  S
C2841      H2842   1.066       .  S
C2841      C2847   1.581       .  S
C2841      C2846   1.579       .  S
C2841      C2848   1.582       .  S
C2843      C2846   1.388       .  D
C2843      C3177   1.473       .  S
C2844      C2847   1.388       .  D
C2844      C3194   1.474       .  S
C2845      C2848   1.389       .  D
C2845      C3184   1.475       .  S
C2846      C2854   1.550       .  S
C2848      C2903   1.549       .  S
C2849      H2850   1.067       .  S
C2849      C2855   1.579       .  S
C2849      C2854   1.581       .  S
C2849      C2853   1.580       .  S
C2851      H2852   1.118       .  S
C2851      C2857   1.510       .  S
C2851      C2856   1.510       .  S
C2851      C2858   1.510       .  S
C2853      C2856   1.389       .  D
C2853      C2898   1.547       .  S
C2854      C2857   1.388       .  D
C2855      C2858   1.387       .  D
C2855      C2867   1.549       .  S
C2856      C3144   1.477       .  S
C2857      C3154   1.472       .  S
C2858      C3164   1.471       .  S
C2859      H2860   1.118       .  S
C2859      C2865   1.508       .  S
C2859      C2864   1.510       .  S
C2859      C2863   1.510       .  S
C2861      H2862   1.067       .  S
C2861      C2867   1.579       .  S
C2861      C2866   1.579       .  S
C2861      C2868   1.581       .  S
C2863      C2866   1.389       .  D
C2863      C3134   1.476       .  S
C2864      C2867   1.387       .  D
C2864      C3117   1.471       .  S
C2865      C2868   1.387       .  D
C2865      C3124   1.471       .  S
C2868      C2873   1.547       .  S
C2869      H2870   1.067       .  S
C2869      C2875   1.579       .  S
C2869      C2874   1.580       .  S
C2869      C2873   1.579       .  S
C2871      H2872   1.118       .  S
C2871      C2877   1.508       .  S
C2871      C2876   1.510       .  S
C2871      C2878   1.509       .  S
C2873      C2876   1.388       .  D
C2874      C2877   1.388       .  D
C2874      C2883   1.548       .  S
C2875      C2878   1.388       .  D
C2875      C2897   1.548       .  S
C2876      C3104   1.476       .  S
C2877      C3094   1.472       .  S
C2878      C3084   1.472       .  S
C2879      H2880   1.067       .  S
C2879      C2885   1.580       .  S
C2879      C2884   1.581       .  S
C2879      C2883   1.578       .  S
C2881      H2882   1.118       .  S
C2881      C2887   1.509       .  S
C2881      C2886   1.511       .  S
C2881      C2888   1.510       .  S
C2883      C2886   1.387       .  D
C2884      C2887   1.390       .  D
C2885      C2888   1.389       .  D
C2885      C2905   1.548       .  S
C2886      C3064   1.472       .  S
C2887      C3077   1.475       .  S
C2888      C3054   1.475       .  S
C2889      H2890   1.118       .  S
C2889      C2895   1.508       .  S
C2889      C2894   1.510       .  S
C2889      C2893   1.511       .  S
C2891      H2892   1.067       .  S
C2891      C2897   1.580       .  S
C2891      C2896   1.579       .  S
C2891      C2898   1.581       .  S
C2893      C2896   1.389       .  D
C2893      C3034   1.476       .  S
C2894      C2897   1.386       .  D
C2894      C3024   1.471       .  S
C2895      C2898   1.387       .  D
C2895      C3044   1.472       .  S
C2896      C2904   1.549       .  S
C2899      H2900   1.067       .  S
C2899      C2905   1.580       .  S
C2899      C2904   1.582       .  S
C2899      C2903   1.580       .  S
C2901      H2902   1.118       .  S
C2901      C2907   1.509       .  S
C2901      C2906   1.511       .  S
C2901      C2908   1.510       .  S
C2903      C2906   1.388       .  D
C2904      C2907   1.388       .  D
C2905      C2908   1.387       .  D
C2906      C3014   1.474       .  S
C2907      C2994   1.473       .  S
C2908      C3004   1.472       .  S
O2909      V2917   1.889       .  S
O2910      V2917   1.890       .  S
O2910      C2920   1.256       .  A
O2911      V2917   1.889       .  S
O2912      V2917   1.890       .  S
O2913      V2918   1.919       .  S
O2914      V2918   1.919       .  S
O2915      V2918   1.920       .  S
O2915      C2920   1.270       .  A
O2916      V2918   1.918       .  S
V2917      V2918   2.045       .  T
C2919      C3227   1.463       .  S
C2920      C3147   1.466       .  S
C2921      C3127   1.463       .  S
C2922      C3187   1.465       .  S
O2923      V2931   1.918       .  S
O2924      V2931   1.918       .  S
O2924      C2934   1.270       .  A
O2925      V2931   1.920       .  S
O2926      V2931   1.919       .  S
O2927      V2932   1.889       .  S
O2928      V2932   1.891       .  S
O2929      V2932   1.889       .  S
O2929      C2934   1.256       .  A
O2930      V2932   1.890       .  S
V2931      V2932   2.044       .  T
C2933      C3074   1.465       .  S
C2934      C3047   1.463       .  S
C2935      C3107   1.465       .  S
C2936      C3017   1.464       .  S
O2937      V2945   1.887       .  S
O2938      V2945   1.887       .  S
O2939      V2945   1.889       .  S
O2940      V2945   1.889       .  S
O2940      C2950   1.256       .  A
O2941      V2946   1.920       .  S
O2941      C2950   1.270       .  A
O2942      V2946   1.920       .  S
O2943      V2946   1.917       .  S
O2944      V2946   1.916       .  S
V2945      V2946   2.045       .  T
C2947      C3067   1.462       .  S
C2948      C3174   1.463       .  S
C2949      C3207   1.464       .  S
C2950      C2997   1.465       .  S
O2951      V2959   1.884       .  S
O2951      C2961   1.255       .  A
O2952      V2959   1.883       .  S
O2953      V2959   1.884       .  S
O2954      V2959   1.884       .  S
O2955      V2960   1.921       .  S
O2956      V2960   1.920       .  S
O2957      V2960   1.920       .  S
O2958      V2960   1.920       .  S
O2958      C2961   1.270       .  A
V2959      V2960   2.055       .  T
C2961      C3087   1.463       .  S
C2962      C3217   1.465       .  S
C2963      C3114   1.462       .  S
C2964      C3057   1.464       .  S
O2965      V2973   1.916       .  S
O2966      V2973   1.917       .  S
O2967      V2973   1.919       .  S
O2968      V2973   1.920       .  S
O2968      C2978   1.270       .  A
O2969      V2974   1.891       .  S
O2969      C2978   1.257       .  A
O2970      V2974   1.891       .  S
O2971      V2974   1.887       .  S
O2972      V2974   1.887       .  S
V2973      V2974   2.045       .  T
C2975      C3097   1.462       .  S
C2976      C3157   1.463       .  S
C2977      C3137   1.466       .  S
C2978      C3037   1.466       .  S
O2979      V2987   1.884       .  S
O2980      V2987   1.883       .  S
O2981      V2987   1.883       .  S
O2981      C2991   1.255       .  A
O2982      V2987   1.883       .  S
O2983      V2988   1.920       .  S
O2984      V2988   1.919       .  S
O2984      C2991   1.269       .  A
O2985      V2988   1.921       .  S
O2986      V2988   1.920       .  S
V2987      V2988   2.056       .  T
C2989      C3167   1.462       .  S
C2990      C3007   1.463       .  S
C2991      C3027   1.461       .  S
C2992      C3197   1.465       .  S
C2993      C2994   1.405       .  A
C2993      C2998   1.395       .  A
C2993      H2999   1.079       .  S
C2994      C2995   1.404       .  A
C2995      C2996   1.400       .  A
C2995      H3000   1.081       .  S
C2996      C2997   1.403       .  A
C2996      H3001   1.083       .  S
C2997      C2998   1.399       .  A
C2998      H3002   1.084       .  S
C3003      C3004   1.405       .  A
C3003      C3008   1.399       .  A
C3003      H3009   1.080       .  S
C3004      C3005   1.403       .  A
C3005      C3006   1.397       .  A
C3005      H3010   1.079       .  S
C3006      C3007   1.401       .  A
C3007      C3008   1.401       .  A
C3008      H3012   1.083       .  S
C3013      C3014   1.405       .  A
C3013      C3018   1.402       .  A
C3013      H3019   1.082       .  S
C3014      C3015   1.404       .  A
C3015      C3016   1.394       .  A
C3015      H3020   1.077       .  S
C3016      C3017   1.398       .  A
C3016      H3021   1.084   1_655  S
C3017      C3018   1.404       .  A
C3018      H3022   1.083       .  S
C3023      C3024   1.404       .  A
C3023      C3028   1.398       .  A
C3023      H3029   1.080       .  S
C3024      C3025   1.403       .  A
C3025      C3026   1.396       .  A
C3025      H3030   1.079       .  S
C3026      C3027   1.400       .  A
C3026      H3031   1.084       .  S
C3027      C3028   1.401       .  A
C3028      H3032   1.083       .  S
C3033      C3034   1.405       .  A
C3033      C3038   1.403       .  A
C3033      H3039   1.082       .  S
C3034      C3035   1.404       .  A
C3035      C3036   1.395       .  A
C3035      H3040   1.077       .  S
C3036      C3037   1.399       .  A
C3036      H3041   1.084       .  S
C3037      C3038   1.404       .  A
C3038      H3042   1.083       .  S
C3043      C3044   1.404       .  A
C3043      C3048   1.394       .  A
C3043      H3049   1.079       .  S
C3044      C3045   1.405       .  A
C3045      C3046   1.400       .  A
C3045      H3050   1.081       .  S
C3046      C3047   1.403       .  A
C3046      H3051   1.083       .  S
C3047      C3048   1.399       .  A
C3048      H3052   1.084       .  S
C3053      C3054   1.405       .  A
C3053      C3058   1.400       .  A
C3053      H3059   1.080       .  S
C3054      C3055   1.403       .  A
C3055      C3056   1.397       .  A
C3055      H3060   1.079       .  S
C3056      C3057   1.400       .  A
C3056      H3061   1.084       .  S
C3057      C3058   1.401       .  A
C3063      C3064   1.403       .  A
C3063      C3068   1.394       .  A
C3063      H3069   1.077       .  S
C3064      C3065   1.404       .  A
C3065      C3066   1.400       .  A
C3065      H3070   1.082       .  S
C3066      C3067   1.403       .  A
C3066      H3071   1.083   1_565  S
C3067      C3068   1.398       .  A
C3068      H3072   1.084       .  S
C3073      C3074   1.399       .  A
C3073      C3078   1.395       .  A
C3073      H3079   1.084       .  S
C3074      C3075   1.403       .  A
C3075      C3076   1.401       .  A
C3075      H3080   1.083   1_655  S
C3076      C3077   1.405       .  A
C3076      H3081   1.081       .  S
C3077      C3078   1.405       .  A
C3078      H3082   1.078       .  S
C3083      C3084   1.403       .  A
C3083      C3088   1.396       .  A
C3083      H3089   1.079       .  S
C3084      C3085   1.405       .  A
C3085      C3086   1.399       .  A
C3085      H3090   1.080       .  S
C3086      C3087   1.401       .  A
C3086      H3091   1.083       .  S
C3087      C3088   1.400       .  A
C3088      H3092   1.084       .  S
C3093      C3094   1.404       .  A
C3093      C3098   1.393       .  A
C3093      H3099   1.078       .  S
C3094      C3095   1.404       .  A
C3095      C3096   1.400       .  A
C3095      H3100   1.081       .  S
C3096      C3097   1.403       .  A
C3096      H3101   1.083       .  S
C3097      C3098   1.398       .  A
C3103      C3104   1.404       .  A
C3103      C3108   1.394       .  A
C3103      H3109   1.076       .  S
C3104      C3105   1.405       .  A
C3105      C3106   1.402       .  A
C3105      H3110   1.082       .  S
C3106      C3107   1.404       .  A
C3106      H3111   1.083   1_565  S
C3107      C3108   1.398       .  A
C3108      H3112   1.084       .  S
C3113      C3114   1.400       .  A
C3113      C3118   1.396       .  A
C3113      H3119   1.084   1_556  S
C3114      C3115   1.401       .  A
C3115      C3116   1.399       .  A
C3115      H3120   1.083       .  S
C3116      C3117   1.405       .  A
C3116      H3121   1.080       .  S
C3117      C3118   1.403       .  A
C3118      H3122   1.079       .  S
C3123      C3124   1.404       .  A
C3123      C3128   1.400       .  A
C3123      H3129   1.081       .  S
C3124      C3125   1.404       .  A
C3125      C3126   1.394       .  A
C3125      H3130   1.078       .  S
C3126      C3127   1.398       .  A
C3127      C3128   1.403       .  A
C3128      H3132   1.083       .  S
C3133      C3134   1.405       .  A
C3133      C3138   1.402       .  A
C3133      H3139   1.082       .  S
C3134      C3135   1.404       .  A
C3135      C3136   1.395       .  A
C3135      H3140   1.076       .  S
C3136      C3137   1.399       .  A
C3137      C3138   1.404       .  A
C3143      C3144   1.405       .  A
C3143      C3148   1.402       .  A
C3143      H3149   1.082       .  S
C3144      C3145   1.404       .  A
C3145      C3146   1.395       .  A
C3145      H3150   1.077       .  S
C3146      C3147   1.399       .  A
C3146      H3151   1.084       .  S
C3147      C3148   1.404       .  A
C3148      H3152   1.083       .  S
C3153      C3154   1.405       .  A
C3153      C3158   1.401       .  A
C3153      H3159   1.081       .  S
C3154      C3155   1.404       .  A
C3155      C3156   1.394       .  A
C3155      H3160   1.078       .  S
C3156      C3157   1.398       .  A
C3156      H3161   1.084       .  S
C3157      C3158   1.403       .  A
C3163      C3164   1.404       .  A
C3163      C3168   1.398       .  A
C3163      H3169   1.080       .  S
C3164      C3165   1.403       .  A
C3165      C3166   1.397       .  A
C3165      H3170   1.079       .  S
C3166      C3167   1.400       .  A
C3166      H3171   1.084       .  S
C3167      C3168   1.401       .  A
C3173      C3174   1.403       .  A
C3173      C3178   1.401       .  A
C3173      H3179   1.083       .  S
C3174      C3175   1.398       .  A
C3175      C3176   1.394       .  A
C3176      C3177   1.404       .  A
C3176      H3181   1.077       .  S
C3177      C3178   1.404       .  A
C3178      H3182   1.082       .  S
C3183      C3184   1.405       .  A
C3183      C3188   1.395       .  A
C3183      H3189   1.078       .  S
C3184      C3185   1.405       .  A
C3185      C3186   1.401       .  A
C3185      H3190   1.081       .  S
C3186      C3187   1.403       .  A
C3186      H3191   1.083   1_655  S
C3187      C3188   1.399       .  A
C3188      H3192   1.084       .  S
C3193      C3194   1.405       .  A
C3193      C3198   1.399       .  A
C3193      H3199   1.080       .  S
C3194      C3195   1.404       .  A
C3195      C3196   1.398       .  A
C3195      H3200   1.080       .  S
C3196      C3197   1.401       .  A
C3197      C3198   1.401       .  A
C3203      C3204   1.405       .  A
C3203      C3208   1.395       .  A
C3203      H3209   1.078       .  S
C3204      C3205   1.404       .  A
C3205      C3206   1.400       .  A
C3205      H3210   1.081       .  S
C3206      C3207   1.403       .  A
C3206      H3211   1.083   1_556  S
C3207      C3208   1.399       .  A
C3208      H3212   1.084   1_565  S
C3213      C3214   1.405       .  A
C3213      C3218   1.400       .  A
C3213      H3219   1.080       .  S
C3214      C3215   1.403       .  A
C3215      C3216   1.397       .  A
C3215      H3220   1.079       .  S
C3216      C3217   1.401       .  A
C3217      C3218   1.401       .  A
C3218      H3222   1.083   1_556  S
C3223      C3224   1.403       .  A
C3223      C3228   1.393       .  A
C3223      H3229   1.077       .  S
C3224      C3225   1.404       .  A
C3225      C3226   1.400       .  A
C3225      H3230   1.082       .  S
C3226      C3227   1.403       .  A
C3226      H3231   1.083   1_565  S
C3227      C3228   1.398       .  A
