geometry optimzed in LAMMPS
_audit_creation_date              2020-11-30 
_audit_creation_method            'lammps2cif' 
_symmetry_space_group_name_H-M    'P1' 
_symmetry_Int_Tables_number       1 
_symmetry_cell_setting            triclinic 
loop_ 
_symmetry_equiv_pos_as_xyz 
  x,y,z 
_cell_length_a                    39.38554325209104 
_cell_length_b                    39.30660616698721 
_cell_length_c                    39.45265874364595 
_cell_angle_alpha                 89.8979205034538 
_cell_angle_beta                  89.96857520722371 
_cell_angle_gamma                 89.61110378343788 
loop_ 
_atom_site_label 
_atom_site_type_symbol 
_atom_site_fract_x 
_atom_site_fract_y 
_atom_site_fract_z 
_atom_site_charge 
C1          C  0.00220161  0.26203100  0.73342275    -0.00290
C2          C  0.00018902  0.23965166  0.76043067    -0.00290
C3          C  0.25737202  0.99923213  0.73372744    -0.00290
C4          C  0.23150695  0.99952226  0.75737997    -0.00290
C5          C  0.99092180  0.72914200  0.25696704    -0.00290
C6          C  0.99491861  0.75938613  0.23940354    -0.00290
C7          C  0.74045894  0.00508827  0.26595297    -0.00290
C8          C  0.75630994  0.00175743  0.23511263    -0.00290
C9          C  0.73131273  0.26241180  0.00121041    -0.00290
C10         C  0.75490064  0.23647825  0.00165497    -0.00290
C11         C  0.26233957  0.74082721  0.00012644    -0.00290
C12         C  0.23746653  0.76552385  0.00002844    -0.00290
C13         C  0.73658268  0.73893292  0.99879562    -0.00290
C14         C  0.75120452  0.77046396  0.00320218    -0.00290
C15         C  0.75880537  0.00263113  0.75925962    -0.00290
C16         C  0.73240897  0.00248549  0.73641113    -0.00290
C17         C  0.99689882  0.73262917  0.74489891    -0.00290
C18         C  0.99725159  0.76373464  0.76116853    -0.00290
O19         O  0.15676691  0.87737023  0.91560468    -0.86200
O20         O  0.14947464  0.93639355  0.87702849    -0.83250
C21         C  0.14559402  0.92783857  0.84643762     0.97260
O22         O  0.11774914  0.91498098  0.83745067    -0.83280
O23         O  0.05628726  0.88229554  0.84085793    -0.85920
C24         C  0.06185770  0.85103680  0.84309000     1.01790
O25         O  0.07612580  0.83953283  0.86951763    -0.78690
O26         O  0.11637195  0.84137746  0.92674710    -0.78870
C27         C  0.14737520  0.84809620  0.92478041     1.01740
O28         O  0.11606544  0.90657343  0.96716226    -0.86200
O29         O  0.10614404  0.96464597  0.92803136    -0.83260
C30         C  0.09718083  0.98272883  0.90312600     0.97280
O31         O  0.08894005  0.96903525  0.87560449    -0.83290
O32         O  0.03004788  0.93073479  0.88572261    -0.85890
C33         C  0.01285846  0.90595111  0.89684412     1.01750
O34         O  0.02677287  0.87829342  0.90539758    -0.78710
O35         O  0.06713757  0.88058737  0.96276919    -0.78860
C36         C  0.09014192  0.89375544  0.98084809     1.01720
Cr37       Cr  0.12864322  0.91959269  0.92007399     1.93740
Cr38       Cr  0.07492702  0.92251693  0.86341508     1.93210
Cr39       Cr  0.07338086  0.86345463  0.91480344     1.39100
O40         O  0.09215703  0.90179590  0.89985091    -1.23950
O41         O  0.92900668  0.87442473  0.84561803    -0.86200
O42         O  0.86876073  0.91172161  0.84013191    -0.83250
C43         C  0.84303712  0.92914647  0.84835977     0.97260
O44         O  0.84131061  0.94063830  0.87789706    -0.83280
O45         O  0.83380381  0.87991327  0.91336035    -0.85920
C46         C  0.84190467  0.85253010  0.92821485     1.01790
O47         O  0.87167621  0.84886262  0.93958827    -0.78690
O48         O  0.90956390  0.83780396  0.88267820    -0.78870
C49         C  0.92292623  0.84408862  0.85442247     1.01740
O50         O  0.95834754  0.92884369  0.88364567    -0.86200
O51         O  0.90108833  0.96759866  0.87511473    -0.83260
C52         C  0.89395540  0.98262889  0.90270815     0.97280
O53         O  0.88388798  0.96610649  0.92829248    -0.83290
O54         O  0.87051092  0.90915607  0.96788595    -0.85890
C55         C  0.89776006  0.90120712  0.98273379     1.01750
O56         O  0.92334297  0.89192924  0.96595742    -0.78710
O57         O  0.96215118  0.87923392  0.90928746    -0.78860
C58         C  0.97581411  0.90572625  0.89742510     1.01720
Cr59       Cr  0.91292624  0.91935965  0.86401649     1.93740
Cr60       Cr  0.86023796  0.92233612  0.92060384     1.93210
Cr61       Cr  0.91536419  0.86743645  0.92273304     1.39100
O62         O  0.89676261  0.90327664  0.90265705    -1.23950
O63         O  0.05202288  0.87595169  0.15566597    -0.86200
O64         O  0.11118309  0.91158252  0.16305771    -0.83250
C65         C  0.13877847  0.92604154  0.15593873     0.97260
O66         O  0.14516423  0.93441154  0.12563081    -0.83280
O67         O  0.15233236  0.87481522  0.08993087    -0.85920
C68         C  0.14594947  0.84742448  0.07482141     1.01790
O69         O  0.11568397  0.84032832  0.06708778    -0.78690
O70         O  0.07526027  0.83506130  0.12672331    -0.78870
C71         C  0.06025869  0.84516210  0.15344479     1.01740
O72         O  0.02571158  0.92585852  0.11151745    -0.86200
O73         O  0.08273321  0.96546516  0.12345932    -0.83260
C74         C  0.09239660  0.97957080  0.09640541     0.97280
O75         O  0.10363042  0.96188125  0.07214128    -0.83290
O76         O  0.11566600  0.90366699  0.03384017    -0.85890
C77         C  0.08940063  0.89312903  0.01869641     1.01750
O78         O  0.06485282  0.88096018  0.03552575    -0.78710
O79         O  0.02322387  0.87318572  0.09290739    -0.78860
C80         C  0.00865846  0.90062615  0.10168584     1.01720
Cr81       Cr  0.06960043  0.91817255  0.13518354     1.93740
Cr82       Cr  0.12594616  0.91704203  0.08171341     1.93210
Cr83       Cr  0.07124676  0.86063037  0.08210753     1.39100
O84         O  0.08862782  0.89881796  0.09923863    -1.23950
O85         O  0.82764608  0.88366175  0.08500577    -0.86200
O86         O  0.83769082  0.94224400  0.12100450    -0.83250
C87         C  0.83885414  0.93382213  0.15163010     0.97260
O88         O  0.86459681  0.91738708  0.16241871    -0.83280
O89         O  0.92386232  0.87555127  0.15755401    -0.85920
C90         C  0.91619173  0.84505915  0.15129577     1.01790
O91         O  0.90082231  0.83783248  0.12418010    -0.78690
O92         O  0.86402562  0.84654915  0.06437848    -0.78870
C93         C  0.83376940  0.85532674  0.07116569     1.01740
O94         O  0.86916830  0.90965234  0.03302876    -0.86200
O95         O  0.88442596  0.96571710  0.07191005    -0.83260
C96         C  0.89467132  0.98258369  0.09705502     0.97280
O97         O  0.90009487  0.96817746  0.12516389    -0.83290
O98         O  0.95495572  0.92536760  0.11579469    -0.85890
C99         C  0.97138619  0.90059249  0.10344212     1.01750
O100        O  0.95649439  0.87357156  0.09484124    -0.78710
O101        O  0.91947011  0.88628242  0.03737406    -0.78860
C102        C  0.89641491  0.89973852  0.01966971     1.01720
Cr103      Cr  0.85770742  0.92352175  0.07939915     1.93740
Cr104      Cr  0.90934505  0.91994933  0.13724987     1.93210
Cr105      Cr  0.90872158  0.86422051  0.08174568     1.39100
O106        O  0.89197096  0.90240787  0.09953034    -1.23950
O107        O  0.87752493  0.08740572  0.83525765    -0.86200
O108        O  0.93492481  0.12311015  0.84459543    -0.83250
C109        C  0.92763594  0.15403441  0.84747750     0.97260
O110        O  0.91238170  0.16416599  0.87399451    -0.83280
O111        O  0.87245454  0.15697012  0.93331350    -0.85920
C112        C  0.84218606  0.15287022  0.92400843     1.01790
O113        O  0.83421153  0.12597557  0.90869918    -0.78690
O114        O  0.84129393  0.06653719  0.87179729    -0.78870
C115        C  0.84924131  0.07415222  0.84167106     1.01740
O116        O  0.90488740  0.03369795  0.87539856    -0.86200
O117        O  0.96182968  0.07296176  0.88879399    -0.83260
C118        C  0.97869960  0.09815236  0.89912288     0.97280
O119        O  0.96397332  0.12568034  0.90666290    -0.83290
O120        O  0.92258521  0.11444958  0.96227770    -0.85890
C121        C  0.89764035  0.10330277  0.97902239     1.01750
O122        O  0.87036346  0.09507151  0.96427163    -0.78710
O123        O  0.88139986  0.03751886  0.92563011    -0.78860
C124        C  0.89419596  0.01988431  0.90212317     1.01720
Cr125      Cr  0.91810355  0.08073168  0.86414338     1.93740
Cr126      Cr  0.91618017  0.13723732  0.91751352     1.93210
Cr127      Cr  0.86001754  0.08277183  0.91623163     1.39100
O128        O  0.89817734  0.10007919  0.89943316    -1.23950
O129        O  0.87040838  0.15542780  0.06147987    -0.86200
O130        O  0.90805245  0.16342758  0.11918341    -0.83250
C131        C  0.92431427  0.15696104  0.14588480     0.97260
O132        O  0.93507136  0.12711568  0.15140609    -0.83280
O133        O  0.87642696  0.09026126  0.16039040    -0.85920
C134        C  0.84967265  0.07424113  0.15375976     1.01790
O135        O  0.84419488  0.06353357  0.12410724    -0.78690
O136        O  0.83495550  0.12181379  0.08774682    -0.78870
C137        C  0.84090983  0.14910370  0.07229049     1.01740
O138        O  0.92297899  0.11385307  0.03290504    -0.86200
O139        O  0.96354133  0.12616682  0.08916245    -0.83260
C140        C  0.97837678  0.09900824  0.09853920     0.97280
O141        O  0.96164990  0.07417725  0.10967932    -0.83290
O142        O  0.90557603  0.03464977  0.12324902    -0.85890
C143        C  0.89665618  0.01976530  0.09626451     1.01750
O144        O  0.88596861  0.03659902  0.07117487    -0.78710
O145        O  0.87135219  0.09320539  0.03149579    -0.78860
C146        C  0.89805421  0.10259218  0.01634810     1.01720
Cr147      Cr  0.91518422  0.13679190  0.07717185     1.93740
Cr148      Cr  0.91815387  0.08275553  0.13326382     1.93210
Cr149      Cr  0.86205789  0.08030441  0.07972203     1.39100
O150        O  0.89885383  0.09961313  0.09631442    -1.23950
O151        O  0.15286070  0.06440447  0.87575741    -0.86200
O152        O  0.15924285  0.12455417  0.91338302    -0.83250
C153        C  0.15095826  0.15100938  0.92973451     0.97260
O154        O  0.12124647  0.15350661  0.94141728    -0.83280
O155        O  0.08532780  0.16434719  0.88269790    -0.85920
C156        C  0.07085585  0.15823068  0.85496027     1.01790
O157        O  0.06166225  0.12831925  0.84767580    -0.78690
O158        O  0.12013095  0.09050734  0.83938757    -0.78870
C159        C  0.14683199  0.07390254  0.84575181     1.01740
O160        O  0.11120227  0.03640825  0.92771348    -0.86200
O161        O  0.12228045  0.09283757  0.96769191    -0.83260
C162        C  0.09456362  0.10032620  0.98225936     0.97280
O163        O  0.06920057  0.11023122  0.96543882    -0.83290
O164        O  0.03025687  0.12546695  0.90913603    -0.85890
C165        C  0.01599351  0.09841146  0.89955360     1.01750
O166        O  0.03333850  0.07415896  0.88774704    -0.78710
O167        O  0.09021173  0.03511371  0.87605557    -0.78860
C168        C  0.09886022  0.02004852  0.90316728     1.01720
Cr169      Cr  0.13358801  0.08108609  0.91988160     1.93740
Cr170      Cr  0.07780694  0.13549490  0.92303148     1.93210
Cr171      Cr  0.07780734  0.08322939  0.86560539     1.39100
O172        O  0.09608715  0.09955916  0.90301048    -1.23950
O173        O  0.11962289  0.08588645  0.16151252    -0.86200
O174        O  0.05912654  0.12391573  0.15482771    -0.83250
C175        C  0.06856645  0.15412538  0.15042151     0.97260
O176        O  0.08512059  0.16145724  0.12401267    -0.83280
O177        O  0.12410212  0.15349112  0.06592774    -0.85920
C178        C  0.15400143  0.14514790  0.07441970     1.01790
O179        O  0.15986201  0.11660654  0.08809276    -0.78690
O180        O  0.14724982  0.05732421  0.12343890    -0.78870
C181        C  0.14638223  0.07031295  0.15241165     1.01740
O182        O  0.08706886  0.03175149  0.12421493    -0.86200
O183        O  0.03170253  0.07370050  0.11220923    -0.83260
C184        C  0.01552822  0.09880839  0.10001513     0.97280
O185        O  0.03059497  0.12591120  0.09176514    -0.83290
O186        O  0.07067498  0.11409153  0.03595386    -0.85890
C187        C  0.09464487  0.10096953  0.01916606     1.01750
O188        O  0.12132821  0.09081419  0.03353783    -0.78710
O189        O  0.10436437  0.03393164  0.07141822    -0.78860
C190        C  0.09369581  0.01700760  0.09645544     1.01720
Cr191      Cr  0.07601935  0.08008898  0.13545149     1.93740
Cr192      Cr  0.07888380  0.13572929  0.08083058     1.93210
Cr193      Cr  0.13028636  0.07644931  0.08046726     1.39100
O194        O  0.09471397  0.09737086  0.09855405    -1.23950
C195        C  0.50421032  0.23495650  0.25880483    -0.00290
C196        C  0.49847421  0.26400588  0.24011501    -0.00290
C197        C  0.22304919  0.25962151  0.49995179    -0.00290
C198        C  0.24930119  0.23588296  0.50194698    -0.00290
C199        C  0.23431185  0.49697246  0.26664532    -0.00290
C200        C  0.25939783  0.49829672  0.24239445    -0.00290
C201        C  0.23764235  0.23582129  0.00200307    -0.00290
C202        C  0.26196932  0.26092177  0.00294551    -0.00290
C203        C  0.23119848  0.99724277  0.23891211    -0.00290
C204        C  0.25786779  0.99654165  0.26165424    -0.00290
C205        C  0.49672391  0.76448523  0.73679375    -0.00290
C206        C  0.49653271  0.73853040  0.76055797    -0.00290
C207        C  0.25925017  0.76031295  0.50115102    -0.00290
C208        C  0.23470447  0.73545948  0.50161261    -0.00290
C209        C  0.49817284  0.76539930  0.26048828    -0.00290
C210        C  0.49707237  0.74160299  0.23515429    -0.00290
O211        O  0.37269216  0.84588354  0.44072715    -0.86200
O212        O  0.40964955  0.83591916  0.38146811    -0.83250
C213        C  0.42504156  0.84315823  0.35437333     0.97260
O214        O  0.43467666  0.87323751  0.34878285    -0.83280
O215        O  0.37583684  0.90984079  0.33864865    -0.85920
C216        C  0.34791787  0.92434005  0.34480886     1.01790
O217        O  0.34069644  0.93367886  0.37465115    -0.78690
O218        O  0.33463906  0.87552114  0.41355834    -0.78870
C219        C  0.34292002  0.84889456  0.42946293     1.01740
O220        O  0.42419842  0.88862297  0.46519176    -0.86200
O221        O  0.46385744  0.87430457  0.41022415    -0.83260
C222        C  0.47769157  0.90181717  0.40156641     0.97280
O223        O  0.46032139  0.92627346  0.38999527    -0.83290
O224        O  0.40360513  0.96566455  0.37569270    -0.85890
C225        C  0.39395603  0.98061528  0.40242418     1.01750
O226        O  0.38168181  0.96394495  0.42679818    -0.78710
O227        O  0.37180533  0.90836906  0.46778926    -0.78860
C228        C  0.39966126  0.90044447  0.48191265     1.01720
Cr229      Cr  0.41609319  0.86407888  0.42270271     1.93740
Cr230      Cr  0.41703513  0.91753442  0.36622908     1.93210
Cr231      Cr  0.36012836  0.91884663  0.41948392     1.39100
O232        O  0.39792552  0.90047665  0.40297843    -1.23950
O233        O  0.33361178  0.12244156  0.41725038    -0.86200
O234        O  0.34074699  0.06242400  0.37908545    -0.83250
C235        C  0.34323250  0.07201153  0.34875883     0.97260
O236        O  0.36938051  0.08813088  0.33966669    -0.83280
O237        O  0.43063087  0.12396708  0.34347008    -0.85920
C238        C  0.42491515  0.15476052  0.35056482     1.01790
O239        O  0.41098845  0.16240988  0.37820554    -0.78690
O240        O  0.37389239  0.15534653  0.43562250    -0.78870
C241        C  0.34287268  0.15036735  0.43021355     1.01740
O242        O  0.37307864  0.09261772  0.46868144    -0.86200
O243        O  0.38507403  0.03514807  0.42815186    -0.83260
C244        C  0.39433286  0.01804974  0.40256930     0.97280
O245        O  0.40150102  0.03270462  0.37493279    -0.83290
O246        O  0.45986655  0.07116276  0.38255755    -0.85890
C247        C  0.47761648  0.09484648  0.39471872     1.01750
O248        O  0.46380035  0.12131873  0.40688841    -0.78710
O249        O  0.42449617  0.11311238  0.46527198    -0.78860
C250        C  0.39954084  0.10340063  0.48285212     1.01720
Cr251      Cr  0.36140438  0.07973208  0.42157793     1.93740
Cr252      Cr  0.41374752  0.08050385  0.36346534     1.93210
Cr253      Cr  0.41683790  0.13469433  0.41993475     1.39100
O254        O  0.39769595  0.09816788  0.40195781    -1.23950
O255        O  0.55921664  0.84897700  0.37052863    -0.86200
O256        O  0.61524018  0.83501774  0.41074079    -0.83250
C257        C  0.64302856  0.84091268  0.42533121     0.97260
O258        O  0.65115539  0.87094110  0.43275089    -0.83280
O259        O  0.65817283  0.91081105  0.37465101    -0.85920
C260        C  0.65049682  0.92980394  0.34994316     1.01790
O261        O  0.62104469  0.94228295  0.34830508    -0.78690
O262        O  0.58262017  0.88492097  0.33478915    -0.78870
C263        C  0.56857897  0.85671273  0.34077724     1.01740
O264        O  0.53140746  0.88938055  0.42432306    -0.86200
O265        O  0.58536990  0.87382468  0.46439314    -0.83260
C266        C  0.59688782  0.89988928  0.47893824     0.97280
O267        O  0.61196588  0.92298292  0.46286483    -0.83290
O268        O  0.62419369  0.96553681  0.41021614    -0.85890
C269        C  0.59640594  0.98087463  0.40507713     1.01750
O270        O  0.57079858  0.96510967  0.39434472    -0.78710
O271        O  0.52900156  0.91297878  0.37421252    -0.78860
C272        C  0.51458020  0.90276046  0.40071904     1.01720
Cr273      Cr  0.57450930  0.86478556  0.41609808     1.93740
Cr274      Cr  0.63339715  0.91623760  0.41847292     1.93210
Cr275      Cr  0.57729478  0.92442871  0.36573077     1.39100
O276        O  0.59506722  0.90152250  0.40023416    -1.23950
O277        O  0.61938226  0.15547729  0.42826526    -0.86200
O278        O  0.57916009  0.16070063  0.36953485    -0.83250
C279        C  0.56810109  0.15001277  0.34132264     0.97260
O280        O  0.56454788  0.11871797  0.33671538    -0.83280
O281        O  0.62392858  0.08023653  0.33481643    -0.85920
C282        C  0.65089266  0.06653765  0.34611762     1.01790
O283        O  0.65201200  0.05872203  0.37673078    -0.78690
O284        O  0.65843646  0.12133498  0.40857643    -0.78870
C285        C  0.65013995  0.14974316  0.42122361     1.01740
O286        O  0.56901062  0.11388138  0.45956859    -0.86200
O287        O  0.52904752  0.12179043  0.40266156    -0.83260
C288        C  0.51498286  0.09497069  0.39262983     0.97280
O289        O  0.53216293  0.07101446  0.37953241    -0.83290
O290        O  0.58907682  0.03019680  0.37479097    -0.85890
C291        C  0.59662048  0.01766286  0.40316513     1.01750
O292        O  0.60805974  0.03580081  0.42696142    -0.78710
O293        O  0.62100597  0.09466135  0.46324190    -0.78860
C294        C  0.59366017  0.10316296  0.47718264     1.01720
Cr295      Cr  0.57593435  0.13464362  0.41345578     1.93740
Cr296      Cr  0.57890645  0.07684198  0.35969769     1.93210
Cr297      Cr  0.63149393  0.07936097  0.41703787     1.39100
O298        O  0.59508920  0.09697896  0.39672642    -1.23950
O299        O  0.62644193  0.84670072  0.55912240    -0.86200
O300        O  0.58700897  0.83490070  0.61549973    -0.83250
C301        C  0.57239338  0.84076818  0.64322758     0.97260
O302        O  0.56453276  0.87082892  0.65161640    -0.83280
O303        O  0.62265433  0.90986233  0.65855950    -0.85920
C304        C  0.64835696  0.92714777  0.65077950     1.01790
O305        O  0.65018695  0.94000271  0.62162073    -0.78690
O306        O  0.66236336  0.88244876  0.58225961    -0.78870
C307        C  0.65646208  0.85451504  0.56752870     1.01740
O308        O  0.57275417  0.88825599  0.53206736    -0.86200
O309        O  0.53214651  0.87401103  0.58667879    -0.83260
C310        C  0.51707798  0.89987866  0.59877802     0.97280
O311        O  0.53348770  0.92341202  0.61300843    -0.83290
O312        O  0.58838843  0.96622374  0.62443684    -0.85890
C313        C  0.59512320  0.98203573  0.59712842     1.01750
O314        O  0.60553368  0.96579009  0.57152329    -0.78710
O315        O  0.62298315  0.91173798  0.53004539    -0.78860
C316        C  0.59678363  0.90102901  0.51554480     1.01720
Cr317      Cr  0.58091946  0.86418195  0.57510333     1.93740
Cr318      Cr  0.57888253  0.91638673  0.63378430     1.93210
Cr319      Cr  0.63223258  0.92311194  0.57782387     1.39100
O320        O  0.59702662  0.90116735  0.59537500    -1.23950
O321        O  0.61697138  0.09195601  0.65843466    -0.86200
O322        O  0.55898879  0.13055834  0.64917412    -0.83250
C323        C  0.56931216  0.16037695  0.64306676     0.97260
O324        O  0.58613749  0.16636546  0.61655294    -0.83280
O325        O  0.62460452  0.15597731  0.55809885    -0.85920
C326        C  0.65463185  0.14724001  0.56608206     1.01790
O327        O  0.65994506  0.11973888  0.58172219    -0.78690
O328        O  0.64921596  0.06407380  0.62239539    -0.78870
C329        C  0.64358279  0.07524318  0.65199413     1.01740
O330        O  0.58687274  0.03567674  0.62371835    -0.86200
O331        O  0.53215668  0.07731801  0.60760871    -0.83260
C332        C  0.51566664  0.10235571  0.59613472     0.97280
O333        O  0.53061773  0.12948579  0.58733466    -0.83290
O334        O  0.56978068  0.11620566  0.53109996    -0.85890
C335        C  0.59348744  0.10269230  0.51443097     1.01750
O336        O  0.61964456  0.09101170  0.52924887    -0.78710
O337        O  0.60509050  0.03612685  0.57136626    -0.78860
C338        C  0.59464979  0.01982094  0.59687606     1.01720
Cr339      Cr  0.57531563  0.08515572  0.63167080     1.93740
Cr340      Cr  0.57910678  0.13891086  0.57494258     1.93210
Cr341      Cr  0.63053431  0.07940868  0.57742097     1.39100
O342        O  0.59495487  0.10113449  0.59445992    -1.23950
O343        O  0.43690954  0.12358005  0.65352647    -0.86200
O344        O  0.38004014  0.08604192  0.66346790    -0.83250
C345        C  0.35150088  0.07334853  0.65673180     0.97260
O346        O  0.34325425  0.06683784  0.62651671    -0.83280
O347        O  0.33439656  0.12636330  0.59129846    -0.85920
C348        C  0.34006861  0.15401741  0.57629260     1.01790
O349        O  0.37007378  0.16121916  0.56770086    -0.78690
O350        O  0.41024373  0.16464641  0.62761649    -0.78870
C351        C  0.42660236  0.15371688  0.65322149     1.01740
O352        O  0.46235312  0.07627800  0.60619838    -0.86200
O353        O  0.40828505  0.03469192  0.62127032    -0.83260
C354        C  0.39675257  0.02149626  0.59478817     0.97280
O355        O  0.38257463  0.03942193  0.57225571    -0.83290
O356        O  0.37129176  0.09755863  0.53475102    -0.85890
C357        C  0.39836423  0.10675455  0.52008251     1.01750
O358        O  0.42204005  0.12059175  0.53657506    -0.78710
O359        O  0.46337214  0.13027568  0.59204138    -0.78860
C360        C  0.47855652  0.10233906  0.59704825     1.01720
Cr361      Cr  0.42005563  0.08178377  0.63310367     1.93740
Cr362      Cr  0.36101331  0.08422208  0.58244821     1.93210
Cr363      Cr  0.41488448  0.14104049  0.58245490     1.39100
O364        O  0.39867276  0.10211869  0.59910236    -1.23950
O365        O  0.43036690  0.84807821  0.63015195    -0.86200
O366        O  0.37330094  0.83985945  0.59010637    -0.83250
C367        C  0.34795741  0.84702784  0.57188509     0.97260
O368        O  0.34686212  0.87570595  0.55788110    -0.83280
O369        O  0.33440973  0.91404377  0.61560003    -0.85920
C370        C  0.34016724  0.93032888  0.64249025     1.01790
O371        O  0.36957320  0.94169177  0.64894769    -0.78690
O372        O  0.41173528  0.88816760  0.66432501    -0.78870
C373        C  0.42413040  0.85897591  0.65962651     1.01740
O374        O  0.46335662  0.88390461  0.57724743    -0.86200
O375        O  0.40895555  0.87383578  0.53441419    -0.83260
C376        C  0.40124402  0.90102988  0.51862214     0.97280
O377        O  0.38992526  0.92675778  0.53394647    -0.83290
O378        O  0.37007445  0.96914322  0.58577099    -0.85890
C379        C  0.39694618  0.98444636  0.59326547     1.01750
O380        O  0.42203709  0.96818530  0.60472333    -0.78710
O381        O  0.46453908  0.91571704  0.62314209    -0.78860
C382        C  0.47964791  0.90058075  0.59914686     1.01720
Cr383      Cr  0.41741769  0.86451476  0.58398042     1.93740
Cr384      Cr  0.36335808  0.92006171  0.57526885     1.93210
Cr385      Cr  0.41564981  0.92666605  0.63232160     1.39100
O386        O  0.39930000  0.90372924  0.59733718    -1.23950
C387        C  0.73553739  0.76214810  0.50418671    -0.00290
C388        C  0.75275500  0.73141640  0.50153919    -0.00290
C389        C  0.23218255  0.50207922  0.74504236    -0.00290
C390        C  0.25610824  0.50192447  0.77050305    -0.00290
C391        C  0.49784540  0.26789254  0.76075990    -0.00290
C392        C  0.49698616  0.24303841  0.73608586    -0.00290
O393        O  0.65673523  0.62630498  0.09105236    -0.86200
O394        O  0.65146654  0.56822251  0.13100832    -0.83250
C395        C  0.64458636  0.57910247  0.16030250     0.97260
O396        O  0.61722075  0.59501937  0.16544915    -0.83280
O397        O  0.55823687  0.63104795  0.15317093    -0.85920
C398        C  0.56442256  0.66091430  0.14290312     1.01790
O399        O  0.57865560  0.66608211  0.11481218    -0.78690
O400        O  0.61916465  0.65269587  0.05969343    -0.78870
C401        C  0.64863189  0.65109490  0.07228587     1.01740
O402        O  0.62444686  0.59076222  0.03647713    -0.86200
O403        O  0.61152917  0.53771778  0.07909589    -0.83260
C404        C  0.59862672  0.52168506  0.10350581     0.97280
O405        O  0.58955295  0.53680716  0.13045065    -0.83290
O406        O  0.53198900  0.57378237  0.11638466    -0.85890
C407        C  0.51423963  0.59645143  0.10229881     1.01750
O408        O  0.52798164  0.62239817  0.08946562    -0.78710
O409        O  0.57053017  0.60470131  0.03644544    -0.78860
C410        C  0.59691597  0.59559595  0.02080241     1.01720
Cr411      Cr  0.63310364  0.58221508  0.08565772     1.93740
Cr412      Cr  0.57583627  0.58533558  0.13840822     1.93210
Cr413      Cr  0.57549881  0.63369833  0.07690289     1.39100
O414        O  0.59456442  0.60033743  0.10042726    -1.23950
O415        O  0.59015749  0.62687023  0.84041920    -0.86680
O416        O  0.62803359  0.56747558  0.84892970    -0.83250
C417        C  0.65830024  0.57481057  0.85665552     0.97260
O418        O  0.66500432  0.58868469  0.88469093    -0.83280
O419        O  0.65412541  0.62431829  0.94443395    -0.85920
C420        C  0.65275888  0.65453807  0.93404863     1.01790
O421        O  0.62620732  0.66433315  0.91846581    -0.78690
O422        O  0.56637531  0.65861705  0.87890514    -0.78870
C423        C  0.57463253  0.65390616  0.84837121     1.01740
O424        O  0.53536459  0.59634263  0.87693551    -0.86200
O425        O  0.57396045  0.53923947  0.88874324    -0.83260
C426        C  0.59767230  0.52130930  0.90084626     0.97280
O427        O  0.62494040  0.53482971  0.91040358    -0.83290
O428        O  0.60923187  0.57304997  0.96677656    -0.85890
C429        C  0.59799837  0.59758752  0.98406697     1.01750
O430        O  0.59200511  0.62614063  0.97058919    -0.78710
O431        O  0.53729944  0.61623214  0.92895530    -0.78860
C432        C  0.52073409  0.60434373  0.90432332     1.01720
Cr433      Cr  0.58333765  0.58395168  0.86681444     1.93740
Cr434      Cr  0.63540938  0.58183457  0.92486505     1.93210
Cr435      Cr  0.58207895  0.63857031  0.92269671     1.39100
O436        O  0.60018499  0.60141501  0.90468721    -1.23950
O437        O  0.34137380  0.56084826  0.12353098    -0.86200
O438        O  0.33293038  0.61944961  0.08865442    -0.83250
C439        C  0.34000629  0.64854958  0.07741734     0.97260
O440        O  0.37044401  0.65732474  0.07311829    -0.83280
O441        O  0.41107877  0.66000212  0.13215046    -0.85920
C442        C  0.42599793  0.64835779  0.15822372     1.01790
O443        O  0.43139030  0.61718299  0.16089118    -0.78690
O444        O  0.37242934  0.58008934  0.16470046    -0.78870
C445        C  0.34510968  0.56690254  0.15443014     1.01740
O446        O  0.38513105  0.53410971  0.07291804    -0.86200
O447        O  0.37298444  0.59191912  0.03533120    -0.83260
C448        C  0.39889380  0.60474213  0.02215468     0.97280
O449        O  0.42142138  0.61883179  0.03996165    -0.83290
O450        O  0.46218775  0.62366213  0.09635781    -0.85890
C451        C  0.47701110  0.59615468  0.10401321     1.01750
O452        O  0.46060243  0.57095795  0.11530811    -0.78710
O453        O  0.40410640  0.53039851  0.12480722    -0.78860
C454        C  0.39581219  0.51656676  0.09751994     1.01720
Cr455      Cr  0.36153899  0.57841182  0.08184022     1.93740
Cr456      Cr  0.41454257  0.63646509  0.08689521     1.93210
Cr457      Cr  0.41547509  0.57658349  0.13802415     1.39100
O458        O  0.39730284  0.59724986  0.10202040    -1.23950
O459        O  0.44020647  0.65556725  0.87664037    -0.86200
O460        O  0.38433279  0.66852567  0.91520448    -0.83250
C461        C  0.35583596  0.66321117  0.92838641     0.97260
O462        O  0.34673314  0.63355393  0.93660719    -0.83280
O463        O  0.33859020  0.59211382  0.88025073    -0.85920
C464        C  0.34651821  0.57392279  0.85512499     1.01790
O465        O  0.37638845  0.56295445  0.85324214    -0.78690
O466        O  0.41304495  0.62208027  0.84175206    -0.78870
C467        C  0.42843664  0.64963519  0.84745256     1.01740
O468        O  0.46710548  0.61362007  0.93021618    -0.86200
O469        O  0.41272943  0.63061898  0.97031238    -0.83260
C470        C  0.40033644  0.60514566  0.98517585     0.97280
O471        O  0.38577646  0.58173247  0.96892191    -0.83290
O472        O  0.37431937  0.53777868  0.91546893    -0.85890
C473        C  0.40113769  0.52159665  0.90735737     1.01750
O474        O  0.42680277  0.53742949  0.89612958    -0.78710
O475        O  0.46833996  0.59307267  0.87881933    -0.78860
C476        C  0.48361230  0.60261790  0.90522858     1.01720
Cr477      Cr  0.42425722  0.63881923  0.92185210     1.93740
Cr478      Cr  0.36449955  0.58753613  0.92387665     1.93210
Cr479      Cr  0.42000198  0.58074333  0.87037008     1.39100
O480        O  0.40304410  0.60221702  0.90587218    -1.23950
O481        O  0.65364524  0.37353103  0.92939882    -0.86200
O482        O  0.65911927  0.41558724  0.87151545    -0.83250
C483        C  0.64977410  0.43350730  0.84641440     0.97260
O484        O  0.61964820  0.44361695  0.84549422    -0.83280
O485        O  0.58423140  0.38304448  0.83726852    -0.85920
C486        C  0.56926645  0.35574884  0.84497419     1.01790
O487        O  0.55735994  0.35218101  0.87457994    -0.78690
O488        O  0.61385435  0.33853536  0.91246180    -0.78870
C489        C  0.64299913  0.34366561  0.92425745     1.01740
O490        O  0.61721503  0.42591840  0.96388473    -0.86200
O491        O  0.62375261  0.46837848  0.90819148    -0.83260
C492        C  0.59649019  0.48408162  0.90062963     0.97280
O493        O  0.57070346  0.46834106  0.88991927    -0.83290
O494        O  0.52979269  0.41255938  0.87525111    -0.85890
C495        C  0.51569357  0.40545386  0.90300232     1.01750
O496        O  0.53316114  0.39609220  0.92791930    -0.78710
O497        O  0.58758553  0.37880854  0.96680571    -0.78860
C498        C  0.60132492  0.40390023  0.98100786     1.01720
Cr499      Cr  0.63532703  0.41956547  0.91686180     1.93740
Cr500      Cr  0.57749889  0.42503773  0.86498560     1.93210
Cr501      Cr  0.57482435  0.36944233  0.91895502     1.39100
O502        O  0.59601325  0.40480641  0.90079501    -1.23950
O503        O  0.65082114  0.44269334  0.12800605    -0.86200
O504        O  0.66340163  0.38573293  0.08921042    -0.83250
C505        C  0.65736161  0.35806407  0.07435750     0.97260
O506        O  0.62793077  0.35112614  0.06384466    -0.83280
O507        O  0.58750738  0.33892293  0.11896054    -0.85920
C508        C  0.57218478  0.34484077  0.14633761     1.01790
O509        O  0.56324330  0.37473413  0.15395921    -0.78690
O510        O  0.62137913  0.41295100  0.16397157    -0.78870
C511        C  0.64748094  0.43016899  0.15726170     1.01740
O512        O  0.60801061  0.46888884  0.07656224    -0.86200
O513        O  0.62669148  0.41563048  0.03403086    -0.83260
C514        C  0.60081132  0.40524381  0.01841101     0.97280
O515        O  0.57615297  0.39276707  0.03457927    -0.83290
O516        O  0.53402302  0.37803755  0.08908955    -0.85890
C517        C  0.51852219  0.40393028  0.10043397     1.01750
O518        O  0.53447129  0.42799539  0.11421203    -0.78710
O519        O  0.58949391  0.46882440  0.12909606    -0.78860
C520        C  0.59753977  0.48465599  0.10239542     1.01720
Cr521      Cr  0.63420851  0.42643587  0.08315870     1.93740
Cr522      Cr  0.58258295  0.36834222  0.07830746     1.93210
Cr523      Cr  0.57876298  0.41991107  0.13718664     1.39100
O524        O  0.59824672  0.40488237  0.09934469    -1.23950
O525        O  0.40709074  0.38140980  0.84207110    -0.86200
O526        O  0.36957840  0.44002683  0.85263283    -0.83250
C527        C  0.34006820  0.43015352  0.85985517     0.97260
O528        O  0.33444449  0.41501775  0.88739333    -0.83280
O529        O  0.34593113  0.37374570  0.94212079    -0.85920
C530        C  0.35269766  0.34409211  0.93148047     1.01790
O531        O  0.37990088  0.33797611  0.91566125    -0.78690
O532        O  0.43670651  0.34941467  0.87652882    -0.78870
C533        C  0.42435390  0.35481947  0.84752461     1.01740
O534        O  0.46303824  0.41160033  0.87700689    -0.86200
O535        O  0.42341705  0.46712632  0.89267422    -0.83260
C536        C  0.40005039  0.48384227  0.90703021     0.97280
O537        O  0.37377633  0.46881988  0.91811210    -0.83290
O538        O  0.38833236  0.42414120  0.97171737    -0.85890
C539        C  0.40079097  0.39856776  0.98684088     1.01750
O540        O  0.41058997  0.37284340  0.97053643    -0.78710
O541        O  0.46352658  0.39147503  0.92895494    -0.78860
C542        C  0.47883781  0.40386507  0.90380263     1.01720
Cr543      Cr  0.41456759  0.42333824  0.86916789     1.93740
Cr544      Cr  0.36360514  0.41937033  0.92810022     1.93210
Cr545      Cr  0.42094924  0.36609542  0.92170124     1.39100
O546        O  0.39974802  0.40320538  0.90660415    -1.23950
O547        O  0.41686862  0.33679137  0.13084150    -0.86200
O548        O  0.37541305  0.34077519  0.07173161    -0.83250
C549        C  0.34502490  0.34730746  0.07972569     0.97260
O550        O  0.33778409  0.37457899  0.09488776    -0.83280
O551        O  0.34516324  0.43418926  0.13075276    -0.85920
C552        C  0.35311652  0.42638824  0.16086404     1.01790
O553        O  0.38154570  0.41285641  0.16719537    -0.78690
O554        O  0.44138179  0.37821232  0.15746929    -0.78870
C555        C  0.43266105  0.34762427  0.15673366     1.01740
O556        O  0.46738848  0.37469463  0.09487563    -0.86200
O557        O  0.42412427  0.38292334  0.04014520    -0.83260
C558        C  0.39973714  0.39624633  0.02383870     0.97280
O559        O  0.37248772  0.40472194  0.03842586    -0.83290
O560        O  0.38382917  0.46170776  0.07501952    -0.85890
C561        C  0.39618701  0.47951133  0.09824115     1.01750
O562        O  0.40639035  0.46600473  0.12540320    -0.78710
O563        O  0.46382298  0.42797807  0.11118281    -0.78860
C564        C  0.48129245  0.40291332  0.10112227     1.01720
Cr565      Cr  0.41937033  0.36171555  0.08586462     1.93740
Cr566      Cr  0.36300881  0.41715094  0.08622828     1.93210
Cr567      Cr  0.42153797  0.41970848  0.13736113     1.39100
O568        O  0.40135004  0.39957208  0.10287840    -1.23950
C569        C  0.73730765  0.49965803  0.76274644    -0.00290
C570        C  0.76676914  0.50207250  0.74414623    -0.00290
C571        C  0.99584734  0.24635339  0.23193636    -0.00290
C572        C  0.99331006  0.27651512  0.24997866    -0.00290
C573        C  0.74259694  0.22885484  0.49998397    -0.00290
C574        C  0.75929585  0.25961194  0.49707746    -0.00290
C575        C  0.75675124  0.50321915  0.26990740    -0.00290
C576        C  0.73121474  0.50376079  0.24581947    -0.00290
O577        O  0.11445438  0.66200822  0.41343740    -0.86200
O578        O  0.05524773  0.64987555  0.37789424    -0.83250
C579        C  0.06494447  0.64429870  0.34794587     0.97260
O580        O  0.08080700  0.61717691  0.34122971    -0.83280
O581        O  0.12147422  0.56059616  0.35053923    -0.85920
C582        C  0.15113585  0.57165458  0.35560209     1.01790
O583        O  0.15783377  0.58832747  0.38187405    -0.78690
O584        O  0.14925358  0.62674125  0.43911311    -0.78870
C585        C  0.14196472  0.65633876  0.42879798     1.01740
O586        O  0.08736673  0.62500233  0.46980719    -0.86200
O587        O  0.03105477  0.60977584  0.43209525    -0.83260
C588        C  0.01389498  0.59681932  0.40858854     0.97280
O589        O  0.02811329  0.58624761  0.38172498    -0.83290
O590        O  0.07165435  0.53242233  0.39555224    -0.85890
C591        C  0.09717467  0.51622791  0.40657993     1.01750
O592        O  0.12425724  0.53181796  0.41374842    -0.78710
O593        O  0.11026426  0.57377487  0.46836401    -0.78860
C594        C  0.09774836  0.59839825  0.48462315     1.01720
Cr595      Cr  0.07383166  0.63364967  0.42200972     1.93740
Cr596      Cr  0.07675920  0.57572641  0.37005246     1.93210
Cr597      Cr  0.13225774  0.58130514  0.42421547     1.39100
O598        O  0.09403648  0.59666304  0.40568011    -1.23950
O599        O  0.90956746  0.66261007  0.37649704    -0.86200
O600        O  0.86637964  0.65934695  0.43444836    -0.83250
C601        C  0.83641592  0.64816869  0.43163581     0.97260
O602        O  0.83111873  0.61859835  0.42066901    -0.83280
O603        O  0.84373496  0.56478398  0.37818505    -0.85920
C604        C  0.85103334  0.57445785  0.34835061     1.01790
O605        O  0.87907020  0.58868044  0.34195125    -0.78690
O606        O  0.94004196  0.62336020  0.35356879    -0.78870
C607        C  0.92742188  0.65250028  0.35158160     1.01740
O608        O  0.96191995  0.62622976  0.41661842    -0.86200
O609        O  0.91627099  0.62186983  0.47096915    -0.83260
C610        C  0.89516565  0.60386711  0.48739198     0.97280
O611        O  0.87183269  0.58803341  0.47236674    -0.83290
O612        O  0.88647516  0.53494826  0.43035715    -0.85890
C613        C  0.89779865  0.51818945  0.40569791     1.01750
O614        O  0.90613941  0.53311759  0.37888378    -0.78710
O615        O  0.96025787  0.57302296  0.39867001    -0.78860
C616        C  0.97671942  0.59810444  0.40971551     1.01720
Cr617      Cr  0.91235935  0.63931850  0.42304065     1.93740
Cr618      Cr  0.86155803  0.57851133  0.42383577     1.93210
Cr619      Cr  0.91919418  0.58126961  0.37151320     1.39100
O620        O  0.89754493  0.59978244  0.40676097    -1.23950
O621        O  0.83815990  0.58205483  0.63289064    -0.86200
O622        O  0.84147573  0.62475475  0.57476403    -0.83250
C623        C  0.84703025  0.65526556  0.58242794     0.97260
O624        O  0.87416261  0.66319915  0.59737596    -0.83280
O625        O  0.93391443  0.65516169  0.63473598    -0.85920
C626        C  0.93035241  0.64431308  0.66474111     1.01790
O627        O  0.91873443  0.61499176  0.67029534    -0.78690
O628        O  0.88051278  0.55851339  0.65989782    -0.78870
C629        C  0.84962307  0.56629161  0.65869262     1.01740
O630        O  0.87501457  0.53199804  0.59548032    -0.86200
O631        O  0.88335771  0.57789324  0.54116095    -0.83260
C632        C  0.89563662  0.60307908  0.52511817     0.97280
O633        O  0.90582874  0.62915174  0.54082398    -0.83290
O634        O  0.96304592  0.61835216  0.57937733    -0.85890
C635        C  0.98098452  0.60212041  0.60039097     1.01750
O636        O  0.96825909  0.58807317  0.62587478    -0.78710
O637        O  0.92797079  0.53324604  0.61193660    -0.78860
C638        C  0.90248605  0.51670078  0.60217810     1.01720
Cr639      Cr  0.86294826  0.58082461  0.58774130     1.93740
Cr640      Cr  0.91754619  0.63779196  0.58961707     1.93210
Cr641      Cr  0.92193461  0.57589163  0.63868621     1.39100
O642        O  0.90096216  0.59827053  0.60521548    -1.23950
O643        O  0.16254093  0.61674144  0.59111667    -0.86200
O644        O  0.14964919  0.56066897  0.63045141    -0.83250
C645        C  0.14293399  0.57184155  0.65980550     0.97260
O646        O  0.11597040  0.58828516  0.66531780    -0.83280
O647        O  0.05974908  0.62799360  0.65354141    -0.85920
C648        C  0.07078464  0.65758946  0.64812602     1.01790
O649        O  0.08773430  0.66406452  0.62184604    -0.78690
O650        O  0.12772946  0.65232938  0.56563174    -0.78870
C651        C  0.15711315  0.64437328  0.57580720     1.01740
O652        O  0.12496406  0.58788578  0.53626054    -0.86200
O653        O  0.10726440  0.53434994  0.57663350    -0.83260
C654        C  0.09450984  0.51825107  0.60103039     0.97280
O655        O  0.08625927  0.53368724  0.62791631    -0.83290
O656        O  0.03366754  0.57657631  0.61017185    -0.85890
C657        C  0.01774027  0.60182894  0.59832940     1.01750
O658        O  0.03301164  0.62870165  0.59003408    -0.78710
O659        O  0.07478843  0.61268238  0.53724147    -0.78860
C660        C  0.09860380  0.59849169  0.52131699     1.01720
Cr661      Cr  0.13321480  0.57665494  0.58485814     1.93740
Cr662      Cr  0.07556921  0.58283332  0.63638869     1.93210
Cr663      Cr  0.08210743  0.63641038  0.58030202     1.39100
O664        O  0.09705192  0.59873767  0.60047598    -1.23950
O665        O  0.90551641  0.37844864  0.34115406    -0.86200
O666        O  0.86628518  0.43545516  0.35244288    -0.83250
C667        C  0.83638372  0.42792011  0.36132635     0.97260
O668        O  0.83064459  0.41426064  0.38976810    -0.83280
O669        O  0.84390511  0.37493121  0.44610588    -0.85920
C670        C  0.84461545  0.34517650  0.43463360     1.01790
O671        O  0.87016726  0.33586934  0.41713505    -0.78690
O672        O  0.93010278  0.34315916  0.37599257    -0.78870
C673        C  0.92219410  0.35146510  0.34601776     1.01740
O674        O  0.96013437  0.40836132  0.37851085    -0.86200
O675        O  0.92011557  0.46400523  0.39168569    -0.83260
C676        C  0.89704299  0.48102305  0.40601264     0.97280
O677        O  0.87113844  0.46669666  0.41769542    -0.83290
O678        O  0.89034244  0.42411854  0.47010136    -0.85890
C679        C  0.90069848  0.39812520  0.48592136     1.01750
O680        O  0.90551580  0.37034089  0.47050417    -0.78710
O681        O  0.95932334  0.38313069  0.42841259    -0.78860
C682        C  0.97518963  0.39811175  0.40499906     1.01720
Cr683      Cr  0.91173670  0.41979398  0.36906060     1.93740
Cr684      Cr  0.86196949  0.41844759  0.42900405     1.93210
Cr685      Cr  0.91457148  0.36115880  0.42149693     1.39100
O686        O  0.89617064  0.39988739  0.40630700    -1.23950
O687        O  0.11969207  0.43831692  0.35066371    -0.86200
O688        O  0.07928024  0.38222165  0.33955069    -0.83250
C689        C  0.06149504  0.35618116  0.34470903     0.97260
O690        O  0.05183150  0.34848543  0.37434462    -0.83280
O691        O  0.10903387  0.33145953  0.40879797    -0.85920
C692        C  0.13860795  0.33484175  0.41994878     1.01790
O693        O  0.14833049  0.36353509  0.43093917    -0.78690
O694        O  0.15600007  0.40597576  0.37703443    -0.78870
C695        C  0.14872382  0.42460308  0.35216499     1.01740
O696        O  0.07047870  0.46353697  0.39708958    -0.86200
O697        O  0.02703329  0.41127887  0.37957701    -0.83260
C698        C  0.01224631  0.40066423  0.40591375     0.97280
O699        O  0.02920378  0.38882081  0.43034712    -0.83290
O700        O  0.08506941  0.36858459  0.46848150    -0.85890
C701        C  0.09831442  0.39364740  0.48373489     1.01750
O702        O  0.11295954  0.41686923  0.46723638    -0.78710
O703        O  0.12373282  0.46185853  0.41380095    -0.78860
C704        C  0.09673722  0.47864633  0.40713172     1.01720
Cr705      Cr  0.07541370  0.42204182  0.36953499     1.93740
Cr706      Cr  0.07075630  0.36238214  0.41954013     1.93210
Cr707      Cr  0.13209284  0.41115445  0.42107955     1.39100
O708        O  0.09257001  0.39868197  0.40387119    -1.23950
O709        O  0.84600405  0.37234619  0.56352499    -0.86200
O710        O  0.83578591  0.40988454  0.62200656    -0.83250
C711        C  0.84210809  0.42576198  0.64896274     0.97260
O712        O  0.87175696  0.43648333  0.65465907    -0.83280
O713        O  0.90676993  0.37852640  0.66713952    -0.85920
C714        C  0.91780990  0.34894186  0.66189741     1.01790
O715        O  0.92972358  0.34082008  0.63319589    -0.78690
O716        O  0.87626578  0.33444477  0.59059082    -0.78870
C717        C  0.85054630  0.34205897  0.57326192     1.01740
O718        O  0.89070641  0.42324238  0.53916239    -0.86200
O719        O  0.87499840  0.46448376  0.59354957    -0.83260
C720        C  0.90223235  0.47910620  0.60209790     0.97280
O721        O  0.92670305  0.46186739  0.61390663    -0.83290
O722        O  0.96594675  0.40543772  0.63201626    -0.85890
C723        C  0.98212167  0.39334887  0.60693954     1.01750
O724        O  0.96622898  0.37943569  0.58285280    -0.78710
O725        O  0.91157698  0.37106547  0.53815999    -0.78860
C726        C  0.90237182  0.39812771  0.52298932     1.01720
Cr727      Cr  0.86488570  0.41607333  0.58134067     1.93740
Cr728      Cr  0.91680115  0.41879110  0.63881710     1.93210
Cr729      Cr  0.91958002  0.35981241  0.58727199     1.39100
O730        O  0.90091868  0.39836000  0.60212762    -1.23950
O731        O  0.13406018  0.34650003  0.57225283    -0.86200
O732        O  0.09766429  0.33703884  0.62807743    -0.83250
C733        C  0.08417776  0.34308132  0.65614288     0.97260
O734        O  0.07098372  0.37183340  0.66127315    -0.83280
O735        O  0.12680034  0.41369461  0.66411946    -0.85920
C736        C  0.15192081  0.43082494  0.65415526     1.01790
O737        O  0.15035718  0.44471093  0.62552479    -0.78690
O738        O  0.16680308  0.38717951  0.59128040    -0.78870
C739        C  0.16300100  0.35703822  0.58143324     1.01740
O740        O  0.07740458  0.37981605  0.53912583    -0.86200
O741        O  0.03702724  0.36866576  0.59616234    -0.83260
C742        C  0.02009688  0.39408839  0.60729606     0.97280
O743        O  0.03510608  0.41912352  0.62077923    -0.83290
O744        O  0.08790343  0.46576709  0.62855641    -0.85890
C745        C  0.09376116  0.48088773  0.60077262     1.01750
O746        O  0.10348438  0.46431233  0.57505288    -0.78710
O747        O  0.12449136  0.40901793  0.53533602    -0.78860
C748        C  0.09958217  0.39456668  0.52133919     1.01720
Cr749      Cr  0.08716756  0.36135440  0.58533133     1.93740
Cr750      Cr  0.08170201  0.41656505  0.64051492     1.93210
Cr751      Cr  0.13332643  0.42425868  0.58302277     1.39100
O752        O  0.09987004  0.40103240  0.60221873    -1.23950
C753        C  0.78723101  0.44571028  0.28064489    -0.02700
C754        C  0.76530309  0.47237246  0.29168096     0.06980
C755        C  0.76024772  0.47574422  0.32716117    -0.02810
C756        C  0.78213114  0.45956686  0.35040707    -0.02810
C757        C  0.80804799  0.43788615  0.33861252     0.07110
C758        C  0.80890756  0.42913496  0.30403967    -0.03010
Br759      Br  0.84028021  0.39440725  0.28882284    -0.01560
Br760      Br  0.78731598  0.42919733  0.23485037    -0.01630
Br761      Br  0.77887275  0.47054014  0.39804541    -0.01590
Br762      Br  0.72310911  0.50241430  0.34467339    -0.01570
C763        C  0.81457181  0.52919511  0.27264592    -0.02700
C764        C  0.77917686  0.53324583  0.27843601     0.06980
C765        C  0.76883232  0.55956334  0.30087624    -0.02810
C766        C  0.79283802  0.57495391  0.32249711    -0.02810
C767        C  0.82739592  0.56568731  0.32060924     0.07110
C768        C  0.83845746  0.54445772  0.29416079    -0.03010
Br769      Br  0.88601394  0.53265577  0.28974854    -0.01560
Br770      Br  0.83116692  0.50305218  0.23488579    -0.01630
Br771      Br  0.77843718  0.60838427  0.35539776    -0.01590
Br772      Br  0.72309084  0.57692361  0.30152288    -0.01570
C773        C  0.80951906  0.29041564  0.42805952    -0.02700
C774        C  0.81486428  0.32267310  0.44337964     0.06980
C775        C  0.78784984  0.33559648  0.46417196    -0.02810
C776        C  0.75868828  0.31608515  0.46929373    -0.02810
C777        C  0.76000676  0.28086229  0.46458665     0.07110
C778        C  0.78081416  0.27068545  0.43728541    -0.03010
Br779      Br  0.75762713  0.24886229  0.40052054    -0.01560
Br780      Br  0.83763418  0.27440493  0.39137866    -0.01630
Br781      Br  0.71529352  0.33857332  0.47066822    -0.01590
Br782      Br  0.78826021  0.37843528  0.48843724    -0.01570
C783        C  0.76844554  0.30026858  0.54648346    -0.02700
C784        C  0.78068756  0.27349284  0.52556040     0.06980
C785        C  0.81582799  0.26594826  0.52595674    -0.02810
C786        C  0.83864198  0.28665091  0.54401667    -0.02810
C787        C  0.82657845  0.31537952  0.56183859     0.07110
C788        C  0.79131187  0.32079376  0.56468126    -0.03010
Br789      Br  0.77435592  0.35677015  0.59353104    -0.01560
Br790      Br  0.72059317  0.31047012  0.54986733    -0.01630
Br791      Br  0.88679791  0.27730582  0.54129367    -0.01590
Br792      Br  0.83357508  0.22908431  0.49914859    -0.01570
C793        C  0.03616707  0.35147760  0.28690661    -0.02700
C794        C  0.05016203  0.33559996  0.31576414     0.06980
C795        C  0.05556727  0.30021957  0.31553933    -0.02810
C796        C  0.04638315  0.28112478  0.28699453    -0.02810
C797        C  0.02449441  0.29567565  0.26237885     0.07110
C798        C  0.02498183  0.33156149  0.25965535    -0.03010
Br799      Br  0.01609315  0.35366185  0.21705677    -0.01560
Br800      Br  0.02890476  0.40011944  0.28560833    -0.01630
Br801      Br  0.08313455  0.25244353  0.27190231    -0.01590
Br802      Br  0.08087038  0.27829920  0.35137646    -0.01570
C803        C  0.94877960  0.32421917  0.25620512    -0.02700
C804        C  0.95857305  0.29009577  0.26175421     0.06980
C805        C  0.94251567  0.27487092  0.28962914    -0.02810
C806        C  0.93737572  0.29432742  0.31911659    -0.02810
C807        C  0.93352502  0.33017240  0.31636560     0.07110
C808        C  0.93841734  0.34485298  0.28370445    -0.03010
Br809      Br  0.93416678  0.39314401  0.27551167    -0.01560
Br810      Br  0.93405317  0.33735976  0.21167439    -0.01630
Br811      Br  0.92707166  0.26975193  0.35998953    -0.01590
Br812      Br  0.90005851  0.25447977  0.27723208    -0.01570
C813        C  0.80224419  0.44949529  0.73203193    -0.02700
C814        C  0.77763002  0.47354670  0.72111140     0.06980
C815        C  0.76926274  0.47508905  0.68627451    -0.02810
C816        C  0.78743348  0.45544839  0.66245873    -0.02810
C817        C  0.81491568  0.43507275  0.67319702     0.07110
C818        C  0.82040364  0.43013072  0.70811961    -0.03010
Br819      Br  0.85370557  0.39734537  0.72324477    -0.01560
Br820      Br  0.81404899  0.44470418  0.77930322    -0.01630
Br821      Br  0.77665933  0.45910174  0.61483098    -0.01590
Br822      Br  0.73589658  0.50706702  0.67009995    -0.01570
C823        C  0.78163554  0.56338429  0.72927813    -0.02700
C824        C  0.79064774  0.53248148  0.74521348     0.06980
C825        C  0.82505465  0.52430193  0.74208128    -0.02810
C826        C  0.84154056  0.53023422  0.71130429    -0.02810
C827        C  0.82851997  0.55554659  0.68864557     0.07110
C828        C  0.79977513  0.57432442  0.70002423    -0.03010
Br829      Br  0.79017238  0.61864180  0.68171389    -0.01560
Br830      Br  0.76538424  0.59853811  0.75915434    -0.01630
Br831      Br  0.88112211  0.50214545  0.70288510    -0.01590
Br832      Br  0.85193004  0.51993998  0.78237498    -0.01570
C833        C  0.66665669  0.44058105  0.21826326    -0.02700
C834        C  0.67383229  0.43845452  0.18316167     0.06980
C835        C  0.70647936  0.44830412  0.17201502    -0.02810
C836        C  0.72710348  0.46804749  0.19320603    -0.02810
C837        C  0.71887124  0.47224734  0.22793385     0.07110
C838        C  0.69135384  0.45326294  0.24070738    -0.03010
Br839      Br  0.68903397  0.44045456  0.28770877    -0.01560
Br840      Br  0.62208192  0.43210222  0.23624577    -0.01630
Br841      Br  0.76641811  0.48920915  0.17351071    -0.01590
Br842      Br  0.72339558  0.43549907  0.12764356    -0.01570
C843        C  0.65937265  0.46086466  0.78811543    -0.02700
C844        C  0.67276379  0.44388495  0.81755078     0.06980
C845        C  0.70783146  0.43556596  0.81705295    -0.02810
C846        C  0.72725931  0.44199713  0.78789613    -0.02810
C847        C  0.71657325  0.46725289  0.76500573     0.07110
C848        C  0.68127335  0.47052509  0.76149426    -0.03010
Br849      Br  0.66317144  0.48232723  0.71783221    -0.01560
Br850      Br  0.61225246  0.47460951  0.78301910    -0.01630
Br851      Br  0.74313422  0.40063961  0.76735261    -0.01590
Br852      Br  0.73137729  0.41492344  0.85436926    -0.01570
C853        C  0.68196014  0.57036372  0.79821847    -0.02700
C854        C  0.68564273  0.56408109  0.83314769     0.06980
C855        C  0.71235891  0.54286331  0.84442859    -0.02810
C856        C  0.73298323  0.52575866  0.82066859    -0.02810
C857        C  0.72547977  0.52764209  0.78571708     0.07110
C858        C  0.70094471  0.55155827  0.77450678    -0.03010
Br859      Br  0.69400447  0.56048901  0.72693162    -0.01560
Br860      Br  0.65112384  0.60529706  0.78292097    -0.01630
Br861      Br  0.77123869  0.49944388  0.83624757    -0.01590
Br862      Br  0.71857906  0.53391132  0.89215678    -0.01570
C863        C  0.72511782  0.55790706  0.20913846    -0.02700
C864        C  0.71214903  0.53532661  0.23401477     0.06980
C865        C  0.67662319  0.53661262  0.24026779    -0.02810
C866        C  0.65430998  0.55202399  0.21696965    -0.02810
C867        C  0.66733139  0.56969924  0.18889506     0.07110
C868        C  0.70262284  0.57498016  0.18679733    -0.03010
Br869      Br  0.71984892  0.60632842  0.15358861    -0.01560
Br870      Br  0.77271264  0.56817769  0.20620382    -0.01630
Br871      Br  0.60594185  0.54538922  0.22194923    -0.01590
Br872      Br  0.65783346  0.51912744  0.28172621    -0.01570
C873        C  0.44730330  0.27300852  0.80166522    -0.02700
C874        C  0.46680375  0.28608792  0.77446255     0.06980
C875        C  0.46299696  0.32114423  0.76657657    -0.02810
C876        C  0.44706124  0.34358893  0.78933028    -0.02810
C877        C  0.43325316  0.33105581  0.81973447     0.07110
C878        C  0.43160097  0.29552047  0.82482561    -0.03010
Br879      Br  0.40825670  0.27755678  0.86398628    -0.01560
Br880      Br  0.43840742  0.22509621  0.80600106    -0.01630
Br881      Br  0.44803126  0.39191031  0.78011207    -0.01590
Br882      Br  0.47738712  0.33871709  0.72338028    -0.01570
C883        C  0.53582153  0.27317083  0.81144219    -0.02700
C884        C  0.52993907  0.28090990  0.77683703     0.06980
C885        C  0.54776559  0.30865533  0.76277764    -0.02810
C886        C  0.56150550  0.33382292  0.78428286    -0.02810
C887        C  0.56282658  0.32812724  0.81975684     0.07110
C888        C  0.55456852  0.29534023  0.83186947    -0.03010
Br889      Br  0.56925879  0.27988158  0.87620954    -0.01560
Br890      Br  0.51842531  0.23234157  0.83204898    -0.01630
Br891      Br  0.57607512  0.37613028  0.76438260    -0.01590
Br892      Br  0.55665871  0.31069203  0.71484779    -0.01570
C893        C  0.26024576  0.47118956  0.82572794    -0.02700
C894        C  0.26690696  0.47076990  0.79038451     0.06980
C895        C  0.29193071  0.44759249  0.77843902    -0.02810
C896        C  0.31468268  0.43219265  0.80155998    -0.02810
C897        C  0.31185854  0.43879206  0.83657355     0.07110
C898        C  0.28317547  0.45638242  0.84874053    -0.03010
Br899      Br  0.27695340  0.46389916  0.89677653    -0.01560
Br900      Br  0.21931250  0.49161123  0.84322071    -0.01630
Br901      Br  0.34984586  0.40192904  0.78531142    -0.01590
Br902      Br  0.29441124  0.43415865  0.73158742    -0.01570
C903        C  0.26346835  0.55470611  0.80714435    -0.02700
C904        C  0.27559995  0.53291525  0.78143636     0.06980
C905        C  0.31083235  0.53230621  0.77519755    -0.02810
C906        C  0.33381304  0.54624669  0.79843640    -0.02810
C907        C  0.32170609  0.56310585  0.82820093     0.07110
C908        C  0.28601732  0.56790150  0.83164246    -0.03010
Br909      Br  0.26611305  0.58801644  0.87155320    -0.01560
Br910      Br  0.21671501  0.56947663  0.80729448    -0.01630
Br911      Br  0.38171211  0.53807789  0.78884989    -0.01590
Br912      Br  0.32819230  0.51229299  0.73402334    -0.01570
C913        C  0.18354661  0.42649669  0.71005638    -0.02700
C914        C  0.18173829  0.43819837  0.67636414     0.06980
C915        C  0.20853128  0.45889556  0.66462383    -0.02810
C916        C  0.22997010  0.47466937  0.68812201    -0.02810
C917        C  0.22378887  0.47163622  0.72338819     0.07110
C918        C  0.20291545  0.44435480  0.73418394    -0.03010
Br919      Br  0.20040967  0.42942710  0.78056106    -0.01560
Br920      Br  0.16541902  0.38274842  0.72139216    -0.01630
Br921      Br  0.26832328  0.49963163  0.67130223    -0.01590
Br922      Br  0.21794594  0.46480275  0.61667926    -0.01570
C923        C  0.15286084  0.54352891  0.71544135    -0.02700
C924        C  0.16550576  0.56284341  0.68829996     0.06980
C925        C  0.20003880  0.57171854  0.68775592    -0.02810
C926        C  0.22265682  0.55764537  0.71181748    -0.02810
C927        C  0.21100830  0.53277803  0.73516022     0.07110
C928        C  0.17542097  0.52950306  0.73928340    -0.03010
Br929      Br  0.15707549  0.50488720  0.77718506    -0.01560
Br930      Br  0.10511055  0.53260551  0.71785901    -0.01630
Br931      Br  0.26812138  0.57504036  0.71327855    -0.01590
Br932      Br  0.21627944  0.60289058  0.65362498    -0.01570
C933        C  0.77071392  0.71992463  0.44086327    -0.02700
C934        C  0.75277044  0.70905593  0.46978026     0.06980
C935        C  0.75343910  0.67355873  0.47480082    -0.02810
C936        C  0.78188021  0.65423072  0.46460906    -0.02810
C937        C  0.80672789  0.66896648  0.44330397     0.07110
C938        C  0.80008982  0.70187060  0.43041449    -0.03010
Br939      Br  0.82683220  0.71983282  0.39406208    -0.01560
Br940      Br  0.74308956  0.73622273  0.40404447    -0.01630
Br941      Br  0.78653865  0.60841958  0.48162497    -0.01590
Br942      Br  0.71131920  0.65053069  0.48226794    -0.01570
C943        C  0.81053990  0.72657163  0.52887974    -0.02700
C944        C  0.77549007  0.71899457  0.52967313     0.06980
C945        C  0.76389479  0.69408756  0.55275976    -0.02810
C946        C  0.78721586  0.67497393  0.57210998    -0.02810
C947        C  0.82241525  0.68136528  0.57004134     0.07110
C948        C  0.83376652  0.70846047  0.54947695    -0.03010
Br949      Br  0.88169143  0.71811024  0.54568403    -0.01560
Br950      Br  0.82776096  0.75927926  0.49699118    -0.01630
Br951      Br  0.77051933  0.63815743  0.59961223    -0.01590
Br952      Br  0.71609137  0.68473277  0.55780175    -0.01570
C953        C  0.46169711  0.16384117  0.70631925    -0.02700
C954        C  0.43673515  0.17544280  0.68263118     0.06980
C955        C  0.42161688  0.20750961  0.68852231    -0.02810
C956        C  0.43750971  0.23104097  0.71036209    -0.02810
C957        C  0.46641260  0.22082616  0.72953482     0.07110
C958        C  0.47283380  0.18566716  0.73191955    -0.03010
Br959      Br  0.49833998  0.16752951  0.76966168    -0.01560
Br960      Br  0.48448207  0.11984488  0.70418341    -0.01630
Br961      Br  0.41709420  0.27531428  0.71433263    -0.01590
Br962      Br  0.37778366  0.21808463  0.66951960    -0.01570
C963        C  0.74111697  0.17350161  0.53153086    -0.02700
C964        C  0.73890811  0.20926548  0.53320150     0.06980
C965        C  0.71579648  0.22169952  0.55756423    -0.02810
C966        C  0.68607170  0.20314748  0.56485899    -0.02810
C967        C  0.68418138  0.16847965  0.55581483     0.07110
C968        C  0.71307918  0.15325711  0.54060037    -0.03010
Br969      Br  0.71416483  0.10539773  0.52991147    -0.01560
Br970      Br  0.78484482  0.15262752  0.52575638    -0.01630
Br971      Br  0.65145059  0.22383979  0.59263367    -0.01590
Br972      Br  0.73618092  0.24156027  0.59696617    -0.01570
C973        C  0.53650136  0.21403949  0.65443107    -0.02700
C974        C  0.55887713  0.18852024  0.66599710     0.06980
C975        C  0.56872474  0.18836996  0.70021683    -0.02810
C976        C  0.55377237  0.21140905  0.72347394    -0.02810
C977        C  0.52674589  0.23337687  0.71307180     0.07110
C978        C  0.52107716  0.23660580  0.67765021    -0.03010
Br979      Br  0.49084005  0.27133370  0.66052251    -0.01560
Br980      Br  0.52381991  0.21569797  0.60718203    -0.01630
Br981      Br  0.57279557  0.21257004  0.76817081    -0.01590
Br982      Br  0.60240116  0.15563862  0.71517795    -0.01570
C983        C  0.71401737  0.84262036  0.54149040    -0.02700
C984        C  0.68491616  0.83090108  0.55879623     0.06980
C985        C  0.68465246  0.79671797  0.56983684    -0.02810
C986        C  0.71235648  0.77509762  0.56230309    -0.02810
C987        C  0.73503849  0.78398904  0.53618156     0.07110
C988        C  0.73981984  0.81932699  0.53211802    -0.03010
Br989      Br  0.78469987  0.83578844  0.52352100    -0.01560
Br990      Br  0.71810898  0.88967493  0.52844235    -0.01630
Br991      Br  0.73257636  0.75472742  0.60172601    -0.01590
Br992      Br  0.64977980  0.78048423  0.59989629    -0.01570
C993        C  0.73411042  0.18789255  0.45093267    -0.02700
C994        C  0.72182751  0.21496652  0.47123476     0.06980
C995        C  0.68765357  0.22506557  0.46776778    -0.02810
C996        C  0.66550343  0.20674551  0.44672215    -0.02810
C997        C  0.67618719  0.17542407  0.43194170     0.07110
C998        C  0.71143641  0.16765830  0.43206567    -0.03010
Br999      Br  0.72989623  0.12975972  0.40661243    -0.01560
Br1000     Br  0.78223767  0.17962186  0.44666705    -0.01630
Br1001     Br  0.62097727  0.22625873  0.43809460    -0.01590
Br1002     Br  0.67008183  0.26292130  0.49345716    -0.01570
C1003       C  0.65414073  0.78720663  0.45840613    -0.02700
C1004       C  0.66599822  0.81305931  0.43669330     0.06980
C1005       C  0.70114640  0.81649959  0.43172456    -0.02810
C1006       C  0.72436650  0.79862579  0.45225750    -0.02810
C1007       C  0.71259642  0.77478248  0.47638738     0.07110
C1008       C  0.67742809  0.76769321  0.47763213    -0.03010
Br1009     Br  0.66057991  0.73231384  0.50672459    -0.01560
Br1010     Br  0.60600657  0.78035685  0.46429480    -0.01630
Br1011     Br  0.77213851  0.80668532  0.44572670    -0.01590
Br1012     Br  0.71731650  0.84516940  0.39574492    -0.01570
C1013       C  0.44935200  0.80532911  0.27044509    -0.02700
C1014       C  0.46783661  0.77611448  0.28072184     0.06980
C1015       C  0.46344343  0.76419303  0.31414232    -0.02810
C1016       C  0.44907238  0.78560311  0.33889271    -0.02810
C1017       C  0.43412636  0.81686259  0.32915534     0.07110
C1018       C  0.43160210  0.82487002  0.29440865    -0.03010
Br1019     Br  0.40392560  0.86275920  0.27937713    -0.01560
Br1020     Br  0.44426070  0.81641541  0.22317869    -0.01630
Br1021     Br  0.45453537  0.77353754  0.38592521    -0.01590
Br1022     Br  0.47157292  0.71715858  0.32482378    -0.01570
C1023       C  0.46880481  0.65960947  0.20453044    -0.02700
C1024       C  0.43950665  0.67012750  0.18597105     0.06980
C1025       C  0.42161955  0.69894412  0.19750271    -0.02810
C1026       C  0.43603738  0.72026436  0.22240267    -0.02810
C1027       C  0.46983831  0.71418182  0.23369712     0.07110
C1028       C  0.48231897  0.68086373  0.22957701    -0.03010
Br1029     Br  0.51865518  0.66469766  0.25813864    -0.01560
Br1030     Br  0.49274762  0.61722396  0.19597905    -0.01630
Br1031     Br  0.40374880  0.74293342  0.25131113    -0.01590
Br1032     Br  0.37499193  0.70550032  0.18418472    -0.01570
C1033       C  0.56446446  0.79711695  0.31997893    -0.02700
C1034       C  0.56112272  0.83222032  0.31328736     0.06980
C1035       C  0.54727236  0.84271811  0.28190280    -0.02810
C1036       C  0.53377007  0.81832256  0.25962894    -0.02810
C1037       C  0.52936212  0.78448867  0.27057147     0.07110
C1038       C  0.54769302  0.77347716  0.29945347    -0.03010
Br1039     Br  0.55324163  0.72586068  0.30949021    -0.01560
Br1040     Br  0.59202139  0.78108032  0.35732949    -0.01630
Br1041     Br  0.52620025  0.83001423  0.21293971    -0.01590
Br1042     Br  0.54268304  0.89017599  0.27043123    -0.01570
C1043       C  0.56926960  0.69813424  0.19370905    -0.02700
C1044       C  0.55287179  0.69008474  0.16330015     0.06980
C1045       C  0.52560550  0.71052633  0.15214727    -0.02810
C1046       C  0.51157691  0.73515992  0.17401930    -0.02810
C1047       C  0.52406990  0.73887431  0.20744298     0.07110
C1048       C  0.55680255  0.72485849  0.21397845    -0.03010
Br1049     Br  0.59154612  0.75150237  0.23508096    -0.01560
Br1050     Br  0.61004727  0.67389199  0.20666799    -0.01630
Br1051     Br  0.47388612  0.76253972  0.15883442    -0.01590
Br1052     Br  0.50530347  0.70262022  0.10840862    -0.01570
C1053       C  0.26145543  0.80132152  0.45150671    -0.02700
C1054       C  0.27544756  0.77329716  0.46914792     0.06980
C1055       C  0.31030084  0.76599204  0.46398520    -0.02810
C1056       C  0.33070744  0.78848929  0.44551053    -0.02810
C1057       C  0.31825231  0.82134669  0.43726508     0.07110
C1058       C  0.28287834  0.82734920  0.43982756    -0.03010
Br1059     Br  0.26311448  0.87184555  0.43353682    -0.01560
Br1060     Br  0.21413792  0.80304608  0.43959141    -0.01630
Br1061     Br  0.37582648  0.77370643  0.43261976    -0.01590
Br1062     Br  0.33120988  0.72553942  0.48253151    -0.01570
C1063       C  0.30002714  0.76472030  0.55174634    -0.02700
C1064       C  0.27288631  0.77820603  0.53225668     0.06980
C1065       C  0.26566390  0.81338899  0.53567798    -0.02810
C1066       C  0.28845154  0.83509591  0.55224944    -0.02810
C1067       C  0.32005261  0.82239848  0.56423269     0.07110
C1068       C  0.32461918  0.78663663  0.56589259    -0.03010
Br1069     Br  0.36517870  0.76664746  0.58503297    -0.01560
Br1070     Br  0.30243908  0.71701346  0.56250039    -0.01630
Br1071     Br  0.27540506  0.88249173  0.55780820    -0.01590
Br1072     Br  0.22380503  0.83261983  0.51856775    -0.01570
C1073       C  0.15327427  0.71072560  0.45915051    -0.02700
C1074       C  0.16488157  0.68448691  0.43789922     0.06980
C1075       C  0.19944613  0.68286777  0.42918648    -0.02810
C1076       C  0.22297434  0.70471559  0.44488863    -0.02810
C1077       C  0.21227594  0.72672738  0.47150321     0.07110
C1078       C  0.17676382  0.73201991  0.47539305    -0.03010
Br1079     Br  0.15947645  0.76863633  0.50286488    -0.01560
Br1080     Br  0.10541942  0.71514050  0.46927198    -0.01630
Br1081     Br  0.26832890  0.70471094  0.42710228    -0.01590
Br1082     Br  0.21447657  0.64982751  0.39607659    -0.01570
C1083       C  0.18407327  0.70143354  0.57535241    -0.02700
C1084       C  0.18538619  0.66680656  0.56672943     0.06980
C1085       C  0.21122425  0.65477734  0.54529645    -0.02810
C1086       C  0.23244789  0.67804047  0.52873231    -0.02810
C1087       C  0.22707295  0.71361020  0.53223682     0.07110
C1088       C  0.20565203  0.72475083  0.55906363    -0.03010
Br1089     Br  0.20581757  0.77051098  0.57592530    -0.01560
Br1090     Br  0.15154342  0.71690845  0.60873492    -0.01630
Br1091     Br  0.26880875  0.66041424  0.50115652    -0.01590
Br1092     Br  0.21485715  0.60681018  0.53500383    -0.01570
C1093       C  0.44696118  0.73303058  0.80181243    -0.02700
C1094       C  0.46521536  0.72074435  0.77349460     0.06980
C1095       C  0.46113577  0.68598671  0.76481885    -0.02810
C1096       C  0.44689878  0.66282942  0.78789982    -0.02810
C1097       C  0.43543915  0.67434977  0.81972311     0.07110
C1098       C  0.43335073  0.70987408  0.82556551    -0.03010
Br1099     Br  0.41194525  0.72726421  0.86605539    -0.01560
Br1100     Br  0.43648096  0.78081534  0.80609240    -0.01630
Br1101     Br  0.44654124  0.61499285  0.77645935    -0.01590
Br1102     Br  0.47286595  0.66982706  0.72030695    -0.01570
C1103       C  0.43672254  0.78048977  0.71300717    -0.02700
C1104       C  0.46727217  0.78906964  0.73045060     0.06980
C1105       C  0.47506856  0.82422614  0.73275121    -0.02810
C1106       C  0.46026887  0.84786155  0.71036368    -0.02810
C1107       C  0.43394669  0.83761952  0.68884604     0.07110
C1108       C  0.41993982  0.80522232  0.69294829    -0.03010
Br1109     Br  0.37732549  0.79564305  0.67097135    -0.01560
Br1110     Br  0.41583624  0.73659388  0.71521689    -0.01630
Br1111     Br  0.47875116  0.89312409  0.70670575    -0.01590
Br1112     Br  0.50616941  0.84064081  0.76640985    -0.01570
C1113       C  0.54507409  0.69585386  0.76504032    -0.02700
C1114       C  0.52801817  0.72479885  0.77765886     0.06980
C1115       C  0.53397390  0.73390989  0.81184023    -0.02810
C1116       C  0.55340406  0.71282173  0.83327941    -0.02810
C1117       C  0.56337033  0.67977727  0.82247982     0.07110
C1118       C  0.55903887  0.67164610  0.78766055    -0.03010
Br1119     Br  0.56587922  0.62627436  0.77053153    -0.01560
Br1120     Br  0.55351234  0.69122774  0.71719752    -0.01630
Br1121     Br  0.56476462  0.73011706  0.87779427    -0.01590
Br1122     Br  0.51698364  0.77635606  0.82976950    -0.01570
C1123       C  0.53626091  0.78990114  0.65420366    -0.02700
C1124       C  0.56155916  0.81229097  0.66523543     0.06980
C1125       C  0.57355832  0.80965876  0.69855953    -0.02810
C1126       C  0.55640475  0.78927402  0.72255778    -0.02810
C1127       C  0.52647766  0.77135959  0.71300392     0.07110
C1128       C  0.51964530  0.76880529  0.67774053    -0.03010
Br1129     Br  0.48667769  0.73703267  0.66110211    -0.01560
Br1130     Br  0.52212223  0.79023455  0.60733044    -0.01630
Br1131     Br  0.57601277  0.78705851  0.76700733    -0.01590
Br1132     Br  0.61410960  0.83403572  0.71060156    -0.01570
C1133       C  0.28447422  0.04924593  0.33680077    -0.02700
C1134       C  0.31605065  0.06145924  0.32439081     0.06980
C1135       C  0.32172328  0.06006013  0.28899915    -0.02810
C1136       C  0.29626132  0.04802597  0.26725548    -0.02810
C1137       C  0.26985241  0.02778811  0.28030831     0.07110
C1138       C  0.26335021  0.02993318  0.31554721    -0.03010
Br1139     Br  0.22545380  0.00638086  0.33554341    -0.01560
Br1140     Br  0.26955731  0.05704464  0.38300029    -0.01630
Br1141     Br  0.29654846  0.06342725  0.22102856    -0.01590
Br1142     Br  0.36578867  0.06679712  0.26927996    -0.01570
C1143       C  0.33682587  0.95247998  0.28896895    -0.02700
C1144       C  0.32470870  0.93347825  0.31658564     0.06980
C1145       C  0.28997317  0.92532613  0.31787527    -0.02810
C1146       C  0.26658402  0.94143620  0.29580889    -0.02810
C1147       C  0.27828166  0.96532223  0.27159766     0.07110
C1148       C  0.31379532  0.96628774  0.26545021    -0.03010
Br1149     Br  0.33160356  0.98516239  0.22415321    -0.01560
Br1150     Br  0.38456102  0.96297688  0.28483712    -0.01630
Br1151     Br  0.21959787  0.92865877  0.29840114    -0.01590
Br1152     Br  0.27493965  0.89098529  0.34897830    -0.01570
C1153       C  0.32138851  0.28853734  0.07050104    -0.02700
C1154       C  0.31763072  0.32420945  0.06819654     0.06980
C1155       C  0.28865106  0.33769307  0.05174034    -0.02810
C1156       C  0.26626776  0.31578992  0.03467282    -0.02810
C1157       C  0.27179469  0.28008691  0.03458485     0.07110
C1158       C  0.29655437  0.26693427  0.05698669    -0.03010
Br1159     Br  0.29589433  0.22044110  0.07218100    -0.01560
Br1160     Br  0.36218840  0.26811488  0.08819008    -0.01630
Br1161     Br  0.22805478  0.33536408  0.01100419    -0.01590
Br1162     Br  0.28202085  0.38636774  0.04731982    -0.01570
C1163       C  0.27156470  0.29575016  0.94827096    -0.02700
C1164       C  0.28313232  0.27160017  0.97259665     0.06980
C1165       C  0.31870367  0.26569007  0.97458180    -0.02810
C1166       C  0.34172051  0.28849959  0.95982949    -0.02810
C1167       C  0.32958291  0.31607433  0.94055543     0.07110
C1168       C  0.29476974  0.31825324  0.93286973    -0.03010
Br1169     Br  0.27905246  0.35254634  0.90131334    -0.01560
Br1170     Br  0.22522254  0.29771185  0.93329661    -0.01630
Br1171     Br  0.38964971  0.28400526  0.96966681    -0.01590
Br1172     Br  0.33677400  0.22587468  0.99679472    -0.01570
C1173       C  0.27099714  0.44328497  0.20841170    -0.02700
C1174       C  0.28163981  0.46823321  0.23215899     0.06980
C1175       C  0.31709141  0.47150629  0.23769694    -0.02810
C1176       C  0.34081162  0.45583217  0.21592205    -0.02810
C1177       C  0.32951304  0.43579525  0.18869964     0.07110
C1178       C  0.29479077  0.42789681  0.18633550    -0.03010
Br1179     Br  0.27980668  0.39608963  0.15219262    -0.01560
Br1180     Br  0.22488958  0.42816449  0.20549856    -0.01630
Br1181     Br  0.38860452  0.46526914  0.22140404    -0.01590
Br1182     Br  0.33388738  0.49859850  0.27462268    -0.01570
C1183       C  0.18283397  0.45982551  0.27070421    -0.02700
C1184       C  0.21769767  0.46457747  0.27826172     0.06980
C1185       C  0.23114894  0.44623594  0.30599259    -0.02810
C1186       C  0.20921953  0.43469365  0.33168901    -0.02810
C1187       C  0.17398926  0.43229599  0.32517890     0.07110
C1188       C  0.16230039  0.44051597  0.29241249    -0.03010
Br1189     Br  0.11835414  0.42552253  0.27700257    -0.01560
Br1190     Br  0.16159349  0.48058705  0.23182434    -0.01630
Br1191     Br  0.22786765  0.42860082  0.37639878    -0.01590
Br1192     Br  0.27829636  0.43326497  0.30751067    -0.01570
C1193       C  0.28961102  0.55543401  0.23335081    -0.02700
C1194       C  0.26723158  0.52977338  0.22189753     0.06980
C1195       C  0.26428880  0.52543966  0.18669736    -0.02810
C1196       C  0.29104285  0.53456171  0.16542453    -0.02810
C1197       C  0.31694235  0.55662118  0.17754688     0.07110
C1198       C  0.31404900  0.56930132  0.21102163    -0.03010
Br1199     Br  0.34317800  0.60531223  0.22701862    -0.01560
Br1200     Br  0.28537211  0.57478683  0.27784103    -0.01630
Br1201     Br  0.29248530  0.51141770  0.12188777    -0.01590
Br1202     Br  0.22423414  0.50519828  0.16743097    -0.01570
C1203       C  0.20711627  0.54404144  0.34446017    -0.02700
C1204       C  0.17864355  0.56181599  0.33217354     0.06980
C1205       C  0.17551742  0.56767052  0.29718453    -0.02810
C1206       C  0.19672173  0.55025861  0.27410704    -0.02810
C1207       C  0.22198313  0.52749375  0.28641038     0.07110
C1208       C  0.22955625  0.52849580  0.32157535    -0.03010
Br1209     Br  0.27199905  0.51143867  0.33892792    -0.01560
Br1210     Br  0.21435107  0.53837047  0.39264134    -0.01630
Br1211     Br  0.19165765  0.56046173  0.22674087    -0.01590
Br1212     Br  0.14330127  0.60107547  0.28142943    -0.01570
C1213       C  0.30594994  0.22914806  0.47406012    -0.02700
C1214       C  0.27049303  0.22385494  0.47174427     0.06980
C1215       C  0.25957074  0.19879827  0.44814340    -0.02810
C1216       C  0.28355967  0.17737178  0.43160066    -0.02810
C1217       C  0.31811415  0.17743253  0.44154279     0.07110
C1218       C  0.32904719  0.20420437  0.46312211    -0.03010
Br1219     Br  0.37451574  0.20686077  0.48229294    -0.01560
Br1220     Br  0.32437800  0.27074412  0.49203634    -0.01630
Br1221     Br  0.26863399  0.14887844  0.39470330    -0.01590
Br1222     Br  0.21264305  0.19282144  0.43657193    -0.01570
C1223       C  0.21856226  0.29192854  0.44404226    -0.02700
C1224       C  0.20558634  0.26736165  0.46685735     0.06980
C1225       C  0.17113427  0.25752743  0.46340975    -0.02810
C1226       C  0.14918372  0.27544859  0.44132992    -0.02810
C1227       C  0.16125686  0.30449161  0.42406568     0.07110
C1228       C  0.19651276  0.30916674  0.42168839    -0.03010
Br1229     Br  0.21381056  0.34207292  0.39009011    -0.01560
Br1230     Br  0.26381826  0.30883198  0.44824705    -0.01630
Br1231     Br  0.10160950  0.26407995  0.44065321    -0.01590
Br1232     Br  0.15204514  0.22434743  0.49399976    -0.01570
C1233       C  0.25687910  0.18313176  0.53629731    -0.02700
C1234       C  0.26121925  0.21879871  0.53428113     0.06980
C1235       C  0.28684686  0.23330846  0.55461529    -0.02810
C1236       C  0.31300036  0.21247592  0.56812117    -0.02810
C1237       C  0.31108982  0.17656639  0.56590434     0.07110
C1238       C  0.28161553  0.16211310  0.55157765    -0.03010
Br1239     Br  0.27665896  0.11328143  0.54785351    -0.01560
Br1240     Br  0.21685654  0.16258758  0.51752456    -0.01630
Br1241     Br  0.35236778  0.23391201  0.58715708    -0.01590
Br1242     Br  0.28581602  0.28118097  0.56551721    -0.01570
C1243       C  0.21111268  0.34245015  0.54559922    -0.02700
C1244       C  0.19299325  0.33501429  0.57511340     0.06980
C1245       C  0.19154986  0.30054065  0.58511697    -0.02810
C1246       C  0.20191912  0.27433458  0.56229868    -0.02810
C1247       C  0.21193405  0.28346885  0.52863734     0.07110
C1248       C  0.20784609  0.31836517  0.52026789    -0.03010
Br1249     Br  0.16515385  0.32988242  0.49962127    -0.01560
Br1250     Br  0.21832482  0.38888173  0.53149958    -0.01630
Br1251     Br  0.19476440  0.22814789  0.57617297    -0.01590
Br1252     Br  0.17497703  0.29063398  0.62985541    -0.01570
C1253       C  0.42712612  0.29395510  0.19362180    -0.02700
C1254       C  0.44235149  0.32591382  0.18690258     0.06980
C1255       C  0.46364228  0.33934364  0.21305950    -0.02810
C1256       C  0.47021362  0.31989734  0.24219149    -0.02810
C1257       C  0.46567460  0.28470177  0.24147286     0.07110
C1258       C  0.43761241  0.27436283  0.22202469    -0.03010
Br1259     Br  0.40250488  0.25042473  0.24584896    -0.01560
Br1260     Br  0.38840452  0.27878679  0.16859204    -0.01630
Br1261     Br  0.47616856  0.34183082  0.28515707    -0.01590
Br1262     Br  0.48647589  0.38276408  0.21119947    -0.01570
C1263       C  0.45585912  0.19425603  0.26916694    -0.02700
C1264       C  0.47712040  0.22038939  0.28126348     0.06980
C1265       C  0.47589472  0.22888420  0.31602148    -0.02810
C1266       C  0.45603410  0.20962822  0.33878566    -0.02810
C1267       C  0.43741107  0.18142887  0.32688760     0.07110
C1268       C  0.43559465  0.17568462  0.29175789    -0.03010
Br1269     Br  0.40393166  0.14327081  0.27417127    -0.01560
Br1270     Br  0.45303209  0.18374024  0.22154918    -0.01630
Br1271     Br  0.45627806  0.22114607  0.38635483    -0.01590
Br1272     Br  0.50287856  0.26567911  0.33308257    -0.01570
C1273       C  0.52201031  0.27123579  0.18110813    -0.02700
C1274       C  0.52505754  0.27734388  0.21631993     0.06980
C1275       C  0.54920081  0.30129609  0.22761418    -0.02810
C1276       C  0.56867232  0.31947505  0.20397267    -0.02810
C1277       C  0.56185988  0.31689237  0.16915118     0.07110
C1278       C  0.53961566  0.29157773  0.15759053    -0.03010
Br1279     Br  0.53058218  0.28692202  0.10971652    -0.01560
Br1280     Br  0.49205963  0.23671137  0.16442786    -0.01630
Br1281     Br  0.60537215  0.34762978  0.21900556    -0.01590
Br1282     Br  0.55473170  0.31172430  0.27505816    -0.01570
C1283       C  0.56406677  0.22581226  0.27965454    -0.02700
C1284       C  0.53768493  0.21545347  0.25801684     0.06980
C1285       C  0.53466474  0.18023361  0.25538334    -0.02810
C1286       C  0.54008669  0.15981101  0.28405117    -0.02810
C1287       C  0.55869122  0.17299874  0.31225977     0.07110
C1288       C  0.57182599  0.20638352  0.30891258    -0.03010
Br1289     Br  0.60444720  0.22450787  0.34034163    -0.01560
Br1290     Br  0.60317722  0.24396147  0.25696724    -0.01630
Br1291     Br  0.51809211  0.11596704  0.28333453    -0.01590
Br1292     Br  0.53374829  0.16014967  0.21111682    -0.01570
C1293       C  0.04406920  0.23960253  0.19029694    -0.02700
C1294       C  0.02876454  0.22940057  0.22092598     0.06980
C1295       C  0.03588403  0.19588006  0.23209245    -0.02810
C1296       C  0.05018096  0.17160862  0.20980282    -0.02810
C1297       C  0.05817960  0.18068419  0.17578160     0.07110
C1298       C  0.05510631  0.21537507  0.16648485    -0.03010
Br1299     Br  0.06002847  0.23066123  0.12025776    -0.01560
Br1300     Br  0.05787707  0.28584586  0.18399295    -0.01630
Br1301     Br  0.05699282  0.12588218  0.22687000    -0.01590
Br1302     Br  0.03258405  0.18486874  0.27970379    -0.01570
C1303       C  0.22700600  0.02874698  0.18426846    -0.02700
C1304       C  0.22116834  0.02899659  0.21959024     0.06980
C1305       C  0.19822777  0.05387592  0.23241548    -0.02810
C1306       C  0.17535130  0.07063918  0.21027154    -0.02810
C1307       C  0.17596846  0.06329414  0.17528744     0.07110
C1308       C  0.20508659  0.04622432  0.16222621    -0.03010
Br1309     Br  0.21643357  0.04628541  0.11427160    -0.01560
Br1310     Br  0.26490629  0.00392689  0.16527454    -0.01630
Br1311     Br  0.14488596  0.10480713  0.22801344    -0.01590
Br1312     Br  0.19869806  0.06775011  0.27905932    -0.01570
C1313       C  0.18031072  0.20329564  0.07252135    -0.02700
C1314       C  0.18228621  0.16824301  0.06520919     0.06980
C1315       C  0.20975742  0.15607341  0.04586594    -0.02810
C1316       C  0.23255120  0.17912345  0.03105165    -0.02810
C1317       C  0.22634005  0.21477560  0.03224008     0.07110
C1318       C  0.20209316  0.22660701  0.05615575    -0.03010
Br1319     Br  0.19898166  0.27371985  0.06886494    -0.01560
Br1320     Br  0.14789318  0.21918579  0.10551364    -0.01630
Br1321     Br  0.27332362  0.16102875  0.01084963    -0.01590
Br1322     Br  0.21447856  0.10808336  0.03614829    -0.01570
C1323       C  0.16308814  0.21084453  0.94891101    -0.02700
C1324       C  0.17552833  0.17875928  0.93785818     0.06980
C1325       C  0.21111589  0.17360325  0.93788096    -0.02810
C1326       C  0.23277460  0.19932723  0.94949240    -0.02810
C1327       C  0.21959877  0.22552936  0.97001659     0.07110
C1328       C  0.18436632  0.23246026  0.96756010    -0.03010
Br1329     Br  0.16435914  0.27110902  0.99018644    -0.01560
Br1330     Br  0.11704301  0.22579883  0.93962563    -0.01630
Br1331     Br  0.27923134  0.19928010  0.93446497    -0.01590
Br1332     Br  0.23155875  0.13024049  0.92904934    -0.01570
C1333       C  0.96047277  0.23928618  0.17975952    -0.02700
C1334       C  0.96577744  0.23080600  0.21429011     0.06980
C1335       C  0.95020419  0.20092898  0.22708315    -0.02810
C1336       C  0.93339990  0.17850348  0.20495232    -0.02810
C1337       C  0.93345073  0.18457168  0.16971857     0.07110
C1338       C  0.94583821  0.21579004  0.15735228    -0.03010
Br1339     Br  0.94758703  0.22499251  0.10914229    -0.01560
Br1340     Br  0.97578226  0.28191527  0.16154064    -0.01630
Br1341     Br  0.91063529  0.13893496  0.22298725    -0.01590
Br1342     Br  0.95164285  0.18912204  0.27449046    -0.01570
C1343       C  0.22118123  0.94274307  0.20382739    -0.02700
C1344       C  0.20997977  0.96690444  0.22820356     0.06980
C1345       C  0.17447974  0.96936837  0.23397555    -0.02810
C1346       C  0.15111112  0.95503086  0.21118947    -0.02810
C1347       C  0.16278179  0.93593363  0.18331201     0.07110
C1348       C  0.19774195  0.92823058  0.18089611    -0.03010
Br1349     Br  0.21357946  0.89776498  0.14588566    -0.01560
Br1350     Br  0.26734676  0.92652271  0.20265286    -0.01630
Br1351     Br  0.10329177  0.96524904  0.21634614    -0.01590
Br1352     Br  0.15725931  0.99201884  0.27370013    -0.01570
C1353       C  0.05773092  0.78050511  0.77561484    -0.02700
C1354       C  0.02686963  0.78863984  0.75939620     0.06980
C1355       C  0.01816001  0.82320845  0.76110975    -0.02810
C1356       C  0.02619656  0.84214255  0.79016176    -0.02810
C1357       C  0.05067940  0.82929370  0.81379907     0.07110
C1358       C  0.06754992  0.79851806  0.80510225    -0.03010
Br1359     Br  0.10741793  0.78330426  0.82916117    -0.01560
Br1360     Br  0.09453399  0.76952151  0.74542042    -0.01630
Br1361     Br  0.00059260  0.88383169  0.79666922    -0.01590
Br1362     Br  0.00167142  0.84568484  0.72112159    -0.01570
C1363       C  0.94270865  0.79602609  0.77421562    -0.02700
C1364       C  0.96946268  0.77428967  0.78513913     0.06980
C1365       C  0.97526914  0.77058910  0.82029235    -0.02810
C1366       C  0.95862354  0.79209110  0.84363423    -0.02810
C1367       C  0.93425105  0.81588034  0.83215275     0.07110
C1368       C  0.92434368  0.81542580  0.79800083    -0.03010
Br1369     Br  0.88475405  0.84071059  0.78429675    -0.01560
Br1370     Br  0.93099117  0.80080692  0.72695231    -0.01630
Br1371     Br  0.97194000  0.79116950  0.89070845    -0.01590
Br1372     Br  0.00795687  0.73774567  0.83643784    -0.01570
C1373       C  0.05112610  0.70067584  0.73073636    -0.02700
C1374       C  0.02454500  0.72290605  0.72056468     0.06980
C1375       C  0.01955227  0.72908962  0.68561134    -0.02810
C1376       C  0.03722889  0.70975022  0.66129233    -0.02810
C1377       C  0.06066504  0.68472860  0.67179708     0.07110
C1378       C  0.06909850  0.68174095  0.70629886    -0.03010
Br1379     Br  0.10468040  0.65065287  0.71995542    -0.01560
Br1380     Br  0.06375538  0.69589590  0.77778392    -0.01630
Br1381     Br  0.02620137  0.71468580  0.61381862    -0.01590
Br1382     Br  0.98697341  0.76249687  0.67060296    -0.01570
C1383       C  0.93684187  0.71631462  0.72918872    -0.02700
C1384       C  0.96725990  0.70767858  0.74600271     0.06980
C1385       C  0.97538361  0.67265656  0.74522846    -0.02810
C1386       C  0.96466816  0.65222419  0.71794410    -0.02810
C1387       C  0.94159577  0.66555433  0.69383893     0.07110
C1388       C  0.92707687  0.69785177  0.70012525    -0.03010
Br1389     Br  0.88993163  0.71447202  0.67294696    -0.01560
Br1390     Br  0.89946156  0.72777422  0.75842880    -0.01630
Br1391     Br  0.98373294  0.60721799  0.71283769    -0.01590
Br1392     Br  0.99370569  0.65150761  0.78504902    -0.01570
C1393       C  0.81533075  0.03067982  0.76342124    -0.02700
C1394       C  0.77978673  0.03328726  0.76886202     0.06980
C1395       C  0.76829684  0.05836874  0.79210208    -0.02810
C1396       C  0.79169551  0.07414089  0.81408576    -0.02810
C1397       C  0.82622550  0.06468973  0.81356949     0.07110
C1398       C  0.83830372  0.04437083  0.78682806    -0.03010
Br1399     Br  0.88580383  0.03198266  0.78387477    -0.01560
Br1400     Br  0.83320094  0.00946527  0.72321350    -0.01630
Br1401     Br  0.77692858  0.10969617  0.84413219    -0.01590
Br1402     Br  0.72174704  0.07341953  0.79360478    -0.01570
C1403       C  0.76318541  0.97136327  0.81406733    -0.02700
C1404       C  0.76940862  0.97135984  0.77880586     0.06980
C1405       C  0.79502943  0.94934749  0.76647981    -0.02810
C1406       C  0.82034908  0.93708656  0.78849389    -0.02810
C1407       C  0.81563899  0.93902826  0.82399339     0.07110
C1408       C  0.78482869  0.95366839  0.83631605    -0.03010
Br1409     Br  0.77190558  0.95262418  0.88380749    -0.01560
Br1410     Br  0.72533405  0.99658526  0.83277095    -0.01630
Br1411     Br  0.86313202  0.92412206  0.76838210    -0.01590
Br1412     Br  0.79479803  0.93265068  0.72076820    -0.01570
C1413       C  0.72460138  0.05671160  0.70045779    -0.02700
C1414       C  0.71238418  0.03345312  0.72513648     0.06980
C1415       C  0.67686038  0.03291948  0.73110969    -0.02810
C1416       C  0.65418818  0.04730553  0.70766189    -0.02810
C1417       C  0.66676064  0.06554157  0.67975136     0.07110
C1418       C  0.70171366  0.07232918  0.67759536    -0.03010
Br1419     Br  0.71797697  0.10301599  0.64303316    -0.01560
Br1420     Br  0.77146311  0.06983989  0.69830178    -0.01630
Br1421     Br  0.60614902  0.03818069  0.71192488    -0.01590
Br1422     Br  0.65850700  0.01352399  0.77198623    -0.01570
C1423       C  0.72788751  0.96736991  0.68370685    -0.02700
C1424       C  0.72090140  0.97050861  0.71875225     0.06980
C1425       C  0.69514860  0.94956128  0.73240778    -0.02810
C1426       C  0.67037975  0.93559047  0.71088466    -0.02810
C1427       C  0.67573430  0.93539375  0.67545338     0.07110
C1428       C  0.70724491  0.94722028  0.66300108    -0.03010
Br1429     Br  0.72266159  0.93647513  0.61758773    -0.01560
Br1430     Br  0.76512462  0.99118876  0.66288873    -0.01630
Br1431     Br  0.62826151  0.92091110  0.73097140    -0.01590
Br1432     Br  0.69497871  0.93583196  0.77914770    -0.01570
C1433       C  0.77611219  0.77818359  0.06159283    -0.02700
C1434       C  0.75301786  0.78984525  0.03673274     0.06980
C1435       C  0.74971440  0.82562455  0.03473919    -0.02810
C1436       C  0.77693158  0.84678496  0.04367977    -0.02810
C1437       C  0.80514715  0.83302189  0.06105349     0.07110
C1438       C  0.80386203  0.79863369  0.07131436    -0.03010
Br1439     Br  0.83765235  0.78030715  0.10171963    -0.01560
Br1440     Br  0.75874014  0.74841394  0.09590286    -0.01630
Br1441     Br  0.77580873  0.89384978  0.02968297    -0.01590
Br1442     Br  0.70549271  0.84582801  0.03048432    -0.01570
C1443       C  0.80644860  0.77632847  0.97236069    -0.02700
C1444       C  0.77194285  0.78550864  0.97531291     0.06980
C1445       C  0.75888684  0.81189260  0.95458677    -0.02810
C1446       C  0.78114662  0.83216158  0.93537131    -0.02810
C1447       C  0.81651303  0.82576100  0.93648380     0.07110
C1448       C  0.82800496  0.79486809  0.95112136    -0.03010
Br1449     Br  0.87287463  0.77664891  0.94155457    -0.01560
Br1450     Br  0.82586771  0.74071370  0.99979611    -0.01630
Br1451     Br  0.76221789  0.86728656  0.90689311    -0.01590
Br1452     Br  0.71061322  0.82012619  0.95137959    -0.01570
C1453       C  0.68318739  0.73093617  0.03255140    -0.02700
C1454       C  0.71735051  0.72187157  0.02670375     0.06980
C1455       C  0.73038255  0.69194554  0.04206556    -0.02810
C1456       C  0.70828882  0.66841926  0.05706054    -0.02810
C1457       C  0.67376690  0.67709991  0.06196879     0.07110
C1458       C  0.66234060  0.70995888  0.05239213    -0.03010
Br1459     Br  0.61794480  0.72659034  0.06572647    -0.01560
Br1460     Br  0.66330099  0.76993062  0.01052925    -0.01630
Br1461     Br  0.72544992  0.62306934  0.06580630    -0.01590
Br1462     Br  0.77845821  0.68279408  0.04400064    -0.01570
C1463       C  0.74019669  0.68548415  0.96449870    -0.02700
C1464       C  0.73528782  0.72079594  0.96458674     0.06980
C1465       C  0.71217185  0.73227319  0.93994574    -0.02810
C1466       C  0.68367500  0.71215927  0.93174181    -0.02810
C1467       C  0.68257694  0.67740342  0.94184676     0.07110
C1468       C  0.71301475  0.66374301  0.95670749    -0.03010
Br1469     Br  0.72048391  0.61601039  0.96669991    -0.01560
Br1470     Br  0.78595518  0.66846264  0.96174288    -0.01630
Br1471     Br  0.65057791  0.73209621  0.90187749    -0.01590
Br1472     Br  0.73284661  0.75398263  0.90149990    -0.01570
C1473       C  0.20412401  0.83931904  0.04964594    -0.02700
C1474       C  0.17428981  0.82491441  0.06338517     0.06980
C1475       C  0.17121007  0.78908747  0.06384242    -0.02810
C1476       C  0.19728876  0.76823941  0.05074754    -0.02810
C1477       C  0.22369494  0.78277031  0.03137740     0.07110
C1478       C  0.22841211  0.81837141  0.03371825    -0.03010
Br1479     Br  0.26859629  0.83896832  0.01504403    -0.01560
Br1480     Br  0.21016749  0.88815087  0.04732790    -0.01630
Br1481     Br  0.19742986  0.72069146  0.06272861    -0.01590
Br1482     Br  0.13018229  0.76758030  0.07908487    -0.01570
C1483       C  0.16040565  0.79373103  0.95640244    -0.02700
C1484       C  0.17198783  0.82127422  0.93609797     0.06980
C1485       C  0.20709781  0.82273224  0.92823473    -0.02810
C1486       C  0.23055596  0.80172195  0.94587343    -0.02810
C1487       C  0.21853673  0.77673595  0.96877655     0.07110
C1488       C  0.18354243  0.76969822  0.96858930    -0.03010
Br1489     Br  0.16663238  0.72653094  0.98424405    -0.01560
Br1490     Br  0.11414297  0.78921442  0.97305212    -0.01630
Br1491     Br  0.27825574  0.80624005  0.93620006    -0.01590
Br1492     Br  0.22341820  0.85235188  0.89289553    -0.01570
C1493       C  0.28740599  0.65979329  0.04372512    -0.02700
C1494       C  0.31259732  0.67181617  0.06594548     0.06980
C1495       C  0.31366563  0.70680762  0.07354755    -0.02810
C1496       C  0.29140143  0.72986363  0.05742834    -0.02810
C1497       C  0.27063763  0.71862867  0.03038624     0.07110
C1498       C  0.26646430  0.68304388  0.02634221    -0.03010
Br1499     Br  0.23201491  0.66538944  0.99671794    -0.01560
Br1500     Br  0.28443488  0.61188946  0.03274956    -0.01630
Br1501     Br  0.28944091  0.77561142  0.07468044    -0.01590
Br1502     Br  0.34727582  0.72398713  0.10433624    -0.01570
C1503       C  0.34446506  0.71567593  0.96167886    -0.02700
C1504       C  0.33376589  0.69214449  0.93734232     0.06980
C1505       C  0.30064040  0.69434430  0.92458187    -0.02810
C1506       C  0.27589354  0.71393987  0.94166200    -0.02810
C1507       C  0.28549008  0.73351483  0.97040446     0.07110
C1508       C  0.32071539  0.73800970  0.97616120    -0.03010
Br1509     Br  0.33703053  0.77502661  0.00330581    -0.01560
Br1510     Br  0.39074587  0.71527851  0.97785160    -0.01630
Br1511     Br  0.23045791  0.71292822  0.92394160    -0.01590
Br1512     Br  0.29038991  0.67163501  0.88273017    -0.01570
C1513       C  0.79206814  0.23036953  0.05481162    -0.02700
C1514       C  0.76638475  0.21775935  0.03306904     0.06980
C1515       C  0.75980007  0.18235236  0.03407985    -0.02810
C1516       C  0.78384592  0.15966199  0.04742397    -0.02810
C1517       C  0.81275203  0.17236529  0.06380228     0.07110
C1518       C  0.81530599  0.20751511  0.06997285    -0.03010
Br1519     Br  0.85064718  0.22411198  0.09934587    -0.01560
Br1520     Br  0.79484089  0.27772833  0.06676833    -0.01630
Br1521     Br  0.77876659  0.11143604  0.03907502    -0.01590
Br1522     Br  0.71731115  0.16425875  0.01850690    -0.01570
C1523       C  0.82806144  0.21144394  0.94503690    -0.02700
C1524       C  0.81657100  0.17918625  0.93411234     0.06980
C1525       C  0.78144659  0.17204565  0.93721055    -0.02810
C1526       C  0.75928012  0.19654595  0.95117829    -0.02810
C1527       C  0.77260546  0.22356387  0.97040983     0.07110
C1528       C  0.80734466  0.23147655  0.96603904    -0.03010
Br1529     Br  0.82744343  0.27014487  0.98805873    -0.01560
Br1530     Br  0.87228606  0.22885525  0.93247499    -0.01630
Br1531     Br  0.71168648  0.19434458  0.94037167    -0.01590
Br1532     Br  0.76305584  0.12761426  0.92869010    -0.01570
C1533       C  0.70255380  0.27521283  0.05861515    -0.02700
C1534       C  0.72385010  0.28506834  0.03122968     0.06980
C1535       C  0.73057548  0.32027772  0.02715730    -0.02810
C1536       C  0.71078758  0.34478735  0.04391701    -0.02810
C1537       C  0.68499808  0.33433373  0.06598938     0.07110
C1538       C  0.68254577  0.29990289  0.07522808    -0.03010
Br1539     Br  0.65061549  0.28669888  0.10996914    -0.01560
Br1540     Br  0.70039654  0.22934106  0.07546892    -0.01630
Br1541     Br  0.71624586  0.39246146  0.03315310    -0.01590
Br1542     Br  0.76691166  0.33578361  0.99863557    -0.01570
C1543       C  0.72092671  0.29052428  0.94243088    -0.02700
C1544       C  0.70943280  0.27122006  0.97076320     0.06980
C1545       C  0.67382458  0.26842761  0.97528027    -0.02810
C1546       C  0.65148462  0.29129832  0.95925548    -0.02810
C1547       C  0.66406236  0.31444000  0.93521880     0.07110
C1548       C  0.69784181  0.31138380  0.92446532    -0.03010
Br1549     Br  0.71158784  0.33514233  0.88414836    -0.01560
Br1550     Br  0.76683235  0.28944536  0.92602551    -0.01630
Br1551     Br  0.60443074  0.29289374  0.97319537    -0.01590
Br1552     Br  0.65493078  0.23289329  0.00290379    -0.01570
C1553       C  0.76731981  0.05230463  0.19673848    -0.02700
C1554       C  0.77899271  0.02930530  0.22191067     0.06980
C1555       C  0.81417471  0.02719644  0.22868048    -0.02810
C1556       C  0.83755278  0.04457405  0.20818280    -0.02810
C1557       C  0.82587838  0.06455735  0.18090263     0.07110
C1558       C  0.79078358  0.07000495  0.17652507    -0.03010
Br1559     Br  0.77490604  0.10104659  0.14194142    -0.01560
Br1560     Br  0.71943943  0.05907055  0.18843843    -0.01630
Br1561     Br  0.88568909  0.03732038  0.21505959    -0.01590
Br1562     Br  0.83121882  0.99808867  0.26399350    -0.01570
C1563       C  0.77268158  0.94026467  0.22361353    -0.02700
C1564       C  0.75482479  0.96972482  0.21343333     0.06980
C1565       C  0.75518827  0.97537940  0.17847411    -0.02810
C1566       C  0.78462661  0.96823110  0.15992728    -0.02810
C1567       C  0.80926547  0.94484019  0.17328470     0.07110
C1568       C  0.80110905  0.92885054  0.20452549    -0.03010
Br1569     Br  0.82385459  0.88795399  0.21877492    -0.01560
Br1570     Br  0.74608641  0.90559017  0.24528859    -0.01630
Br1571     Br  0.78900490  0.99323452  0.11779904    -0.01590
Br1572     Br  0.71304229  0.98221880  0.15497666    -0.01570
C1573       C  0.74012221  0.03534088  0.32091098    -0.02700
C1574       C  0.73889425  0.03832278  0.28566162     0.06980
C1575       C  0.71720106  0.06444196  0.27414459    -0.02810
C1576       C  0.68671033  0.07159347  0.29187984    -0.02810
C1577       C  0.68205457  0.05854864  0.32516258     0.07110
C1578       C  0.71066295  0.04132020  0.34021827    -0.03010
Br1579     Br  0.71177659  0.02327356  0.38597917    -0.01560
Br1580     Br  0.78337369  0.02821608  0.34226901    -0.01630
Br1581     Br  0.65537614  0.10361911  0.27176997    -0.01590
Br1582     Br  0.74028509  0.10402527  0.25750222    -0.01570
C1583       C  0.68569642  0.97357755  0.27221351    -0.02700
C1584       C  0.72017731  0.97662906  0.28069485     0.06980
C1585       C  0.73307218  0.95749591  0.30823143    -0.02810
C1586       C  0.71077532  0.94239137  0.33147125    -0.02810
C1587       C  0.67572700  0.94063412  0.32399087     0.07110
C1588       C  0.66416669  0.95355416  0.29232419    -0.03010
Br1589     Br  0.61888905  0.94467036  0.27578009    -0.01560
Br1590     Br  0.66726078  0.99823570  0.23412273    -0.01630
Br1591     Br  0.72902478  0.92937397  0.37498170    -0.01590
Br1592     Br  0.78102836  0.94903911  0.31316373    -0.01570
C1593       C  0.05435846  0.76840850  0.21523254    -0.02700
C1594       C  0.02809587  0.77943844  0.23702272     0.06980
C1595       C  0.02468356  0.81492419  0.23891830    -0.02810
C1596       C  0.03076191  0.83521566  0.21031767    -0.02810
C1597       C  0.05085196  0.82224089  0.18294627     0.07110
C1598       C  0.06489143  0.78913412  0.18757277    -0.03010
Br1599     Br  0.10198916  0.77334861  0.16017108    -0.01560
Br1600     Br  0.08812513  0.73885401  0.23477328    -0.01630
Br1601     Br  0.00952413  0.87980895  0.21139203    -0.01590
Br1602     Br  0.02486494  0.83638073  0.28259244    -0.01570
C1603       C  0.96475519  0.76760415  0.18385472    -0.02700
C1604       C  0.96625756  0.77437373  0.21896270     0.06980
C1605       C  0.94666072  0.80154737  0.23214909    -0.02810
C1606       C  0.92870084  0.82348859  0.21021849    -0.02810
C1607       C  0.92875054  0.81793659  0.17478980     0.07110
C1608       C  0.94608249  0.78906531  0.16187895    -0.03010
Br1609     Br  0.94894533  0.78121710  0.11357729    -0.01560
Br1610     Br  0.99094449  0.73058193  0.16511266    -0.01630
Br1611     Br  0.90635623  0.86276583  0.22932248    -0.01590
Br1612     Br  0.94511777  0.81023854  0.28031288    -0.01570
C1613       C  0.04724030  0.70316071  0.33055308    -0.02700
C1614       C  0.05511099  0.66925055  0.32112713     0.06980
C1615       C  0.04927829  0.65927430  0.28716997    -0.02810
C1616       C  0.03468891  0.68249277  0.26413614    -0.02810
C1617       C  0.01974717  0.71304703  0.27603686     0.07110
C1618       C  0.02676567  0.72344748  0.30942286    -0.03010
Br1619     Br  0.00556437  0.76330184  0.32822403    -0.01560
Br1620     Br  0.06418301  0.72251680  0.37228630    -0.01630
Br1621     Br  0.03691101  0.67262975  0.21630949    -0.01590
Br1622     Br  0.05630936  0.61311601  0.27200404    -0.01570
C1623       C  0.95629203  0.67597099  0.26079736    -0.02700
C1624       C  0.95673514  0.71159957  0.26214360     0.06980
C1625       C  0.93342642  0.72543252  0.28535690    -0.02810
C1626       C  0.92657295  0.70811186  0.31610105    -0.02810
C1627       C  0.93502077  0.67306732  0.31970556     0.07110
C1628       C  0.94869023  0.65670237  0.29007822    -0.03010
Br1629     Br  0.95832766  0.60841801  0.28705238    -0.01560
Br1630     Br  0.95557638  0.65488200  0.21690675    -0.01630
Br1631     Br  0.90293044  0.73323246  0.35039532    -0.01590
Br1632     Br  0.89359463  0.74457652  0.26442437    -0.01570
C1633       C  0.15636308  0.04950517  0.78757583    -0.02700
C1634       C  0.16986896  0.06296134  0.81780048     0.06980
C1635       C  0.20549524  0.06376303  0.82167523    -0.02810
C1636       C  0.22710396  0.05069958  0.79641287    -0.02810
C1637       C  0.21352665  0.03118030  0.76978163     0.07110
C1638       C  0.17805876  0.03378608  0.76383108    -0.03010
Br1639     Br  0.15860024  0.01649767  0.72261509    -0.01560
Br1640     Br  0.10780150  0.04771106  0.78031728    -0.01630
Br1641     Br  0.27436872  0.06299093  0.79761273    -0.01590
Br1642     Br  0.22572921  0.07981541  0.86260591    -0.01570
C1643       C  0.22697441  0.96517213  0.81072547    -0.02700
C1644       C  0.21920715  0.96816118  0.77583021     0.06980
C1645       C  0.19238144  0.94817285  0.76319336    -0.02810
C1646       C  0.16827943  0.93392002  0.78566265    -0.02810
C1647       C  0.17322921  0.93596055  0.82133407     0.07110
C1648       C  0.20498491  0.94823657  0.83306871    -0.03010
Br1649     Br  0.21978876  0.94278262  0.87972917    -0.01560
Br1650     Br  0.26832781  0.98386673  0.82877004    -0.01630
Br1651     Br  0.12840697  0.91320448  0.76618601    -0.01590
Br1652     Br  0.19015089  0.93707614  0.71576082    -0.01570
C1653       C  0.26938108  0.05623424  0.70354159    -0.02700
C1654       C  0.27983382  0.02937212  0.72539917     0.06980
C1655       C  0.31527976  0.02535851  0.73112307    -0.02810
C1656       C  0.33912032  0.04144619  0.71008913    -0.02810
C1657       C  0.32796148  0.06336166  0.68418005     0.07110
C1658       C  0.29336267  0.07250784  0.68252126    -0.03010
Br1659     Br  0.27884874  0.10724303  0.65087917    -0.01560
Br1660     Br  0.22351864  0.07320278  0.70266456    -0.01630
Br1661     Br  0.38680038  0.03010035  0.71455593    -0.01590
Br1662     Br  0.33212096  0.99834623  0.76827087    -0.01570
C1663       C  0.31294954  0.92951453  0.69978841    -0.02700
C1664       C  0.31186549  0.93896858  0.66542362     0.06980
C1665       C  0.28452013  0.95870550  0.65342415    -0.02810
C1666       C  0.26128198  0.97287789  0.67651500    -0.02810
C1667       C  0.26596054  0.96876722  0.71192500     0.07110
C1668       C  0.28910238  0.94317829  0.72278927    -0.03010
Br1669     Br  0.28744362  0.92410122  0.76759296    -0.01560
Br1670     Br  0.34763009  0.89829149  0.71539521    -0.01630
Br1671     Br  0.22349410  0.99875399  0.65907605    -0.01590
Br1672     Br  0.28099795  0.96992749  0.60581987    -0.01570
C1673       C  0.07105735  0.18431554  0.79732879    -0.02700
C1674       C  0.06197734  0.18630169  0.83160705     0.06980
C1675       C  0.04130969  0.21325824  0.84274292    -0.02810
C1676       C  0.02576171  0.23512835  0.81899972    -0.02810
C1677       C  0.03004464  0.22993372  0.78344010     0.07110
C1678       C  0.05594104  0.20635703  0.77334076    -0.03010
Br1679     Br  0.07237249  0.20199867  0.72779598    -0.01560
Br1680     Br  0.10416320  0.15044274  0.78343951    -0.01630
Br1681     Br  0.99703530  0.27080052  0.83674177    -0.01590
Br1682     Br  0.03105871  0.21802752  0.89049967    -0.01570
C1683       C  0.97338450  0.18415023  0.76779117    -0.02700
C1684       C  0.96888138  0.21955708  0.76909204     0.06980
C1685       C  0.94269475  0.23230287  0.79029560    -0.02810
C1686       C  0.92710596  0.21060658  0.81452327    -0.02810
C1687       C  0.93944533  0.17689701  0.81927071     0.07110
C1688       C  0.96323606  0.16397140  0.79505515    -0.03010
Br1689     Br  0.98778670  0.12107168  0.79976143    -0.01560
Br1690     Br  0.99610070  0.16329741  0.72968724    -0.01630
Br1691     Br  0.88948112  0.22772963  0.84079837    -0.01590
Br1692     Br  0.92758825  0.27889733  0.78633214    -0.01570
C1693       C  0.07253724  0.32353326  0.71584445    -0.02700
C1694       C  0.07930828  0.31533686  0.68143980     0.06980
C1695       C  0.07007402  0.28282605  0.66945479    -0.02810
C1696       C  0.04543651  0.26432394  0.68719363    -0.02810
C1697       C  0.03569951  0.27405746  0.72036183     0.07110
C1698       C  0.05202857  0.30200588  0.73566768    -0.03010
Br1699     Br  0.03879886  0.31709278  0.78007961    -0.01560
Br1700     Br  0.08328860  0.36782299  0.73395450    -0.01630
Br1701     Br  0.02145188  0.22883849  0.66344555    -0.01590
Br1702     Br  0.08614095  0.26532896  0.62650282    -0.01570
C1703       C  0.97449042  0.31732256  0.71741198    -0.02700
C1704       C  0.97217063  0.28138398  0.71831384     0.06980
C1705       C  0.94353289  0.26721170  0.70128265    -0.02810
C1706       C  0.91991438  0.28974164  0.68533588    -0.02810
C1707       C  0.92235952  0.32524351  0.69076237     0.07110
C1708       C  0.94470287  0.33596763  0.71612423    -0.03010
Br1709     Br  0.94738263  0.38265006  0.73071470    -0.01560
Br1710     Br  0.00114938  0.33604885  0.68101892    -0.01630
Br1711     Br  0.88574054  0.27320104  0.65474693    -0.01590
Br1712     Br  0.93820156  0.21931664  0.69416693    -0.01570
loop_ 
_geom_bond_atom_site_label_1 
_geom_bond_atom_site_label_2 
_geom_bond_distance 
_geom_bond_site_symmetry_2 
_ccdc_geom_bond_type 
C1            C2   1.383       .  D
C1         C1697   1.495       .  S
C1         C1704   1.523   1_455  S
C2         C1677   1.532       .  S
C2         C1684   1.508   1_455  S
C3            C4   1.381       .  D
C3         C1654   1.519   1_565  S
C3         C1667   1.512       .  S
C4         C1637   1.510   1_565  S
C4         C1644   1.513       .  S
C5            C6   1.385       .  D
C5         C1617   1.498   1_655  S
C5         C1624   1.530       .  S
C6         C1594   1.533   1_655  S
C6         C1604   1.504       .  S
C7            C8   1.373       .  D
C7         C1574   1.522       .  S
C7         C1584   1.496   1_545  S
C8         C1554   1.501       .  S
C8         C1564   1.525   1_545  S
C9           C10   1.375       .  D
C9         C1534   1.511       .  S
C9         C1544   1.517   1_554  S
C10        C1514   1.508       .  S
C10        C1527   1.503   1_554  S
C11          C12   1.374       .  D
C11        C1497   1.512       .  S
C11        C1507   1.512   1_554  S
C12        C1477   1.510       .  S
C12        C1487   1.505   1_554  S
C13          C14   1.381   1_556  D
C13        C1454   1.496   1_556  S
C13        C1464   1.529       .  S
C14        C1434   1.530       .  S
C14        C1444   1.494   1_554  S
C15          C16   1.376       .  D
C15        C1394   1.515       .  S
C15        C1404   1.507   1_545  S
C16        C1414   1.512       .  S
C16        C1424   1.511   1_545  S
C17          C18   1.382       .  D
C17        C1374   1.499   1_655  S
C17        C1384   1.530       .  S
C18        C1354   1.529   1_655  S
C18        C1364   1.503       .  S
O19         Cr37   1.997       .  S
O19          C27   1.263       .  A
O20         Cr37   1.999       .  S
O20          C21   1.263       .  A
C21          O22   1.262       .  A
C21        C1647   1.507       .  S
O22         Cr38   1.993       .  S
O23         Cr38   1.963       .  S
O23          C24   1.250       .  A
C24          O25   1.266       .  A
C24        C1357   1.506       .  S
O25         Cr39   2.023       .  S
O26         Cr39   1.955       .  S
O26          C27   1.253       .  A
C27        C1484   1.495       .  S
O28         Cr37   1.989       .  S
O28          C36   1.262       .  A
O29         Cr37   2.000       .  S
O29          C30   1.261       .  A
C30          O31   1.257       .  A
C30         C168   1.469   1_565  S
O31         Cr38   1.974       .  S
O32         Cr38   1.999       .  S
O32          C33   1.268       .  A
C33          O34   1.260       .  A
C33          C58   1.459   1_455  S
O34         Cr39   1.958       .  S
O35         Cr39   2.024       .  S
O35          C36   1.267       .  A
C36          C77   1.494   1_556  S
Cr37         O40   1.791       .  S
Cr38         O40   1.783       .  S
Cr39         O40   1.783       .  S
O41         Cr59   2.009       .  S
O41          C49   1.266       .  A
O42         Cr59   2.003       .  S
O42          C43   1.262       .  A
C43          O44   1.252       .  A
C43        C1407   1.495       .  S
O44         Cr60   1.975       .  S
O45         Cr60   1.993       .  S
O45          C46   1.264       .  A
C46          O47   1.263       .  A
C46        C1447   1.492       .  S
O47         Cr61   1.987       .  S
O48         Cr61   1.979       .  S
O48          C49   1.257       .  A
C49        C1367   1.482       .  S
O50         Cr59   1.988       .  S
O50          C58   1.259       .  A
O51         Cr59   1.999       .  S
O51          C52   1.270       .  A
C52          O53   1.264       .  A
C52         C124   1.465   1_565  S
O53         Cr60   1.986       .  S
O54         Cr60   1.976       .  S
O54          C55   1.260       .  A
C55          O56   1.258       .  A
C55         C102   1.459   1_556  S
O56         Cr61   1.986       .  S
O57         Cr61   1.975       .  S
O57          C58   1.264       .  A
Cr59         O62   1.769       .  S
Cr60         O62   1.766       .  S
Cr61         O62   1.770       .  S
O63         Cr81   1.974       .  S
O63          C71   1.254       .  A
O64         Cr81   1.988       .  S
O64          C65   1.261       .  A
C65          O66   1.265       .  A
C65        C1347   1.490       .  S
O66         Cr82   2.013       .  S
O67         Cr82   1.979       .  S
O67          C68   1.258       .  A
C68          O69   1.264       .  A
C68        C1474   1.490       .  S
O69         Cr83   2.008       .  S
O70         Cr83   2.031       .  S
O70          C71   1.271       .  A
C71        C1597   1.518       .  S
O72         Cr81   1.986       .  S
O72          C80   1.263       .  A
O73         Cr81   1.987       .  S
O73          C74   1.262       .  A
C74          O75   1.262       .  A
C74         C190   1.473   1_565  S
O75         Cr82   2.000       .  S
O76         Cr82   2.004       .  S
O76          C77   1.267       .  A
C77          O78   1.268       .  A
O78         Cr83   2.018       .  S
O79         Cr83   1.997       .  S
O79          C80   1.267       .  A
C80          C99   1.470   1_455  S
Cr81         O84   1.774       .  S
Cr82         O84   1.778       .  S
Cr83         O84   1.788       .  S
O85        Cr103   1.982       .  S
O85          C93   1.263       .  A
O86        Cr103   1.963       .  S
O86          C87   1.253       .  A
C87          O88   1.272       .  A
C87        C1567   1.506       .  S
O88        Cr104   2.025       .  S
O89        Cr104   1.999       .  S
O89          C90   1.263       .  A
C90          O91   1.263       .  A
C90        C1607   1.493       .  S
O91        Cr105   1.993       .  S
O92        Cr105   2.018       .  S
O92          C93   1.267       .  A
C93        C1437   1.488       .  S
O94        Cr103   1.961       .  S
O94         C102   1.255       .  A
O95        Cr103   1.992       .  S
O95          C96   1.262       .  A
C96          O97   1.262       .  A
C96         C143   1.464   1_565  S
O97        Cr104   1.985       .  S
O98        Cr104   1.998       .  S
O98          C99   1.264       .  A
C99         O100   1.264       .  A
O100       Cr105   1.988       .  S
O101       Cr105   1.999       .  S
O101        C102   1.259       .  A
Cr103       O106   1.768       .  S
Cr104       O106   1.780       .  S
Cr105       O106   1.781       .  S
O107       Cr125   1.979       .  S
O107        C115   1.258       .  A
O108       Cr125   1.954       .  S
O108        C109   1.252       .  A
C109        O110   1.269       .  A
C109       C1687   1.505       .  S
O110       Cr126   2.020       .  S
O111       Cr126   1.985       .  S
O111        C112   1.259       .  A
C112        O113   1.260       .  A
C112       C1524   1.495       .  S
O113       Cr127   1.995       .  S
O114       Cr127   2.009       .  S
O114        C115   1.265       .  A
C115       C1397   1.482       .  S
O116       Cr125   1.974       .  S
O116        C124   1.259       .  A
O117       Cr125   2.000       .  S
O117        C118   1.264       .  A
C118        O119   1.260       .  A
C118        C165   1.469   1_655  S
O119       Cr126   1.980       .  S
O120       Cr126   1.994       .  S
O120        C121   1.264       .  A
C121        O122   1.266       .  A
C121        C146   1.473   1_556  S
O122       Cr127   2.000       .  S
O123       Cr127   1.997       .  S
O123        C124   1.262       .  A
Cr125       O128   1.768       .  S
Cr126       O128   1.779       .  S
Cr127       O128   1.781       .  S
O129       Cr147   2.003       .  S
O129        C137   1.264       .  A
O130       Cr147   1.981       .  S
O130        C131   1.258       .  A
C131        O132   1.263       .  A
C131       C1337   1.484       .  S
O132       Cr148   2.004       .  S
O133       Cr148   1.981       .  S
O133        C134   1.259       .  A
C134        O135   1.263       .  A
C134       C1557   1.474       .  S
O135       Cr149   1.999       .  S
O136       Cr149   1.970       .  S
O136        C137   1.256       .  A
C137       C1517   1.471       .  S
O138       Cr147   1.990       .  S
O138        C146   1.263       .  A
O139       Cr147   2.004       .  S
O139        C140   1.268       .  A
C140        O141   1.260       .  A
C140        C184   1.464   1_655  S
O141       Cr148   1.976       .  S
O142       Cr148   1.998       .  S
O142        C143   1.267       .  A
C143        O144   1.261       .  A
O144       Cr149   1.983       .  S
O145       Cr149   2.002       .  S
O145        C146   1.266       .  A
Cr147       O150   1.769       .  S
Cr148       O150   1.770       .  S
Cr149       O150   1.767       .  S
O151       Cr169   2.008       .  S
O151        C159   1.263       .  A
O152       Cr169   2.007       .  S
O152        C153   1.266       .  A
C153        O154   1.261       .  A
C153       C1324   1.498       .  S
O154       Cr170   1.994       .  S
O155       Cr170   1.976       .  S
O155        C156   1.258       .  A
C156        O157   1.266       .  A
C156       C1674   1.477       .  S
O157       Cr171   2.007       .  S
O158       Cr171   1.983       .  S
O158        C159   1.259       .  A
C159       C1634   1.490       .  S
O160       Cr169   1.994       .  S
O160        C168   1.263       .  A
O161       Cr169   1.992       .  S
O161        C162   1.267       .  A
C162        O163   1.259       .  A
C162        C187   1.456   1_556  S
O163       Cr170   1.974       .  S
O164       Cr170   1.994       .  S
O164        C165   1.265       .  A
C165        O166   1.259       .  A
O166       Cr171   1.991       .  S
O167       Cr171   1.993       .  S
O167        C168   1.267       .  A
Cr169       O172   1.771       .  S
Cr170       O172   1.768       .  S
Cr171       O172   1.766       .  S
O173       Cr191   2.017       .  S
O173        C181   1.267       .  A
O174       Cr191   1.996       .  S
O174        C175   1.258       .  A
C175        O176   1.263       .  A
C175       C1297   1.502       .  S
O176       Cr192   1.999       .  S
O177       Cr192   2.005       .  S
O177        C178   1.265       .  A
C178        O179   1.264       .  A
C178       C1314   1.486       .  S
O179       Cr193   1.991       .  S
O180       Cr193   1.969       .  S
O180        C181   1.253       .  A
C181       C1307   1.498       .  S
O182       Cr191   1.997       .  S
O182        C190   1.266       .  A
O183       Cr191   1.990       .  S
O183        C184   1.265       .  A
C184        O185   1.265       .  A
O185       Cr192   1.990       .  S
O186       Cr192   1.993       .  S
O186        C187   1.261       .  A
C187        O188   1.257       .  A
O188       Cr193   1.966       .  S
O189       Cr193   1.997       .  S
O189        C190   1.263       .  A
Cr191       O194   1.768       .  S
Cr192       O194   1.771       .  S
Cr193       O194   1.770       .  S
C195        C196   1.376       .  D
C195       C1264   1.502       .  S
C195       C1284   1.521       .  S
C196       C1257   1.523       .  S
C196       C1274   1.502       .  S
C197        C198   1.390       .  D
C197       C1224   1.506       .  S
C197       C1247   1.533       .  S
C198       C1214   1.528       .  S
C198       C1234   1.514       .  S
C199        C200   1.376       .  D
C199       C1184   1.506       .  S
C199       C1207   1.509       .  S
C200       C1174   1.521       .  S
C200       C1194   1.510       .  S
C201        C202   1.381       .  D
C201       C1317   1.519       .  S
C201       C1327   1.506   1_554  S
C202       C1157   1.511       .  S
C202       C1164   1.519   1_554  S
C203        C204   1.382       .  D
C203       C1304   1.512   1_565  S
C203       C1344   1.521       .  S
C204       C1137   1.511   1_565  S
C204       C1147   1.514       .  S
C205        C206   1.384       .  D
C205       C1104   1.525       .  S
C205       C1127   1.526       .  S
C206       C1094   1.510       .  S
C206       C1114   1.508       .  S
C207        C208   1.379       .  D
C207       C1054   1.504       .  S
C207       C1064   1.516       .  S
C208       C1077   1.522       .  S
C208       C1087   1.512       .  S
C209        C210   1.371       .  D
C209       C1014   1.495       .  S
C209       C1037   1.498       .  S
C210       C1027   1.527       .  S
C210       C1047   1.528       .  S
O211       Cr229   1.988       .  S
O211        C219   1.259       .  A
O212       Cr229   1.987       .  S
O212        C213   1.262       .  A
C213        O214   1.263       .  A
C213       C1017   1.478       .  S
O214       Cr230   1.994       .  S
O215       Cr230   1.979       .  S
O215        C216   1.259       .  A
C216        O217   1.266       .  A
C216       C1144   1.483       .  S
O217       Cr231   2.011       .  S
O218       Cr231   1.997       .  S
O218        C219   1.260       .  A
C219       C1057   1.491       .  S
O220       Cr229   1.963       .  S
O220        C228   1.257       .  A
O221       Cr229   1.988       .  S
O221        C222   1.261       .  A
C222        O223   1.261       .  A
C222        C272   1.454       .  S
O223       Cr230   1.979       .  S
O224       Cr230   1.997       .  S
O224        C225   1.265       .  A
C225        O226   1.261       .  A
C225        C244   1.472   1_565  S
O226       Cr231   1.992       .  S
O227       Cr231   2.002       .  S
O227        C228   1.268       .  A
C228        C376   1.450       .  S
Cr229       O232   1.774       .  S
Cr230       O232   1.766       .  S
Cr231       O232   1.774       .  S
O233       Cr251   2.005       .  S
O233        C241   1.268       .  A
O234       Cr251   1.987       .  S
O234        C235   1.258       .  A
C235        O236   1.264       .  A
C235       C1134   1.500       .  S
O236       Cr252   2.005       .  S
O237       Cr252   1.998       .  S
O237        C238   1.262       .  A
C238        O239   1.256       .  A
C238       C1267   1.489       .  S
O239       Cr253   1.985       .  S
O240       Cr253   1.971       .  S
O240        C241   1.257       .  A
C241       C1217   1.507       .  S
O242       Cr251   1.982       .  S
O242        C250   1.259       .  A
O243       Cr251   1.996       .  S
O243        C244   1.266       .  A
C244        O245   1.265       .  A
O245       Cr252   1.994       .  S
O246       Cr252   1.998       .  S
O246        C247   1.263       .  A
C247        O248   1.266       .  A
C247        C288   1.474       .  S
O248       Cr253   1.987       .  S
O249       Cr253   2.000       .  S
O249        C250   1.263       .  A
C250        C357   1.476       .  S
Cr251       O254   1.783       .  S
Cr252       O254   1.785       .  S
Cr253       O254   1.775       .  S
O255       Cr273   1.998       .  S
O255        C263   1.267       .  A
O256       Cr273   1.991       .  S
O256        C257   1.260       .  A
C257        O258   1.260       .  A
C257       C1004   1.484       .  S
O258       Cr274   1.989       .  S
O259       Cr274   1.996       .  S
O259        C260   1.262       .  A
C260        O261   1.258       .  A
C260       C1587   1.490       .  S
O261       Cr275   1.987       .  S
O262       Cr275   1.987       .  S
O262        C263   1.264       .  A
C263       C1034   1.482       .  S
O264       Cr273   1.975       .  S
O264        C272   1.256       .  A
O265       Cr273   1.986       .  S
O265        C266   1.262       .  A
C266        O267   1.258       .  A
C266        C316   1.445       .  S
O267       Cr274   1.961       .  S
O268       Cr274   1.995       .  S
O268        C269   1.262       .  A
C269        O270   1.261       .  A
C269        C291   1.448   1_565  S
O270       Cr275   1.974       .  S
O271       Cr275   1.986       .  S
O271        C272   1.256       .  A
Cr273       O276   1.773       .  S
Cr274       O276   1.774       .  S
Cr275       O276   1.772       .  S
O277       Cr295   1.990       .  S
O277        C285   1.262       .  A
O278       Cr295   2.016       .  S
O278        C279   1.269       .  A
C279        O280   1.253       .  A
C279       C1287   1.504       .  S
O280       Cr296   1.958       .  S
O281       Cr296   2.031       .  S
O281        C282   1.268       .  A
C282        O283   1.246       .  A
C282       C1577   1.511       .  S
O283       Cr297   1.958       .  S
O284       Cr297   1.995       .  S
O284        C285   1.265       .  A
C285        C997   1.505       .  S
O286       Cr295   2.012       .  S
O286        C294   1.264       .  A
O287       Cr295   1.965       .  S
O287        C288   1.259       .  A
C288        O289   1.267       .  A
O289       Cr296   2.014       .  S
O290       Cr296   1.965       .  S
O290        C291   1.257       .  A
C291        O292   1.265       .  A
O292       Cr297   1.989       .  S
O293       Cr297   1.963       .  S
O293        C294   1.253       .  A
C294        C335   1.470       .  S
Cr295       O298   1.784       .  S
Cr296       O298   1.783       .  S
Cr297       O298   1.779       .  S
O299       Cr317   2.017       .  S
O299        C307   1.268       .  A
O300       Cr317   1.978       .  S
O300        C301   1.257       .  A
C301        O302   1.264       .  A
C301       C1124   1.480       .  S
O302       Cr318   2.007       .  S
O303       Cr318   1.997       .  S
O303        C304   1.261       .  A
C304        O305   1.258       .  A
C304       C1427   1.491       .  S
O305       Cr319   1.985       .  S
O306       Cr319   1.992       .  S
O306        C307   1.266       .  A
C307        C984   1.491       .  S
O308       Cr317   1.968       .  S
O308        C316   1.256       .  A
O309       Cr317   2.009       .  S
O309        C310   1.268       .  A
C310        O311   1.264       .  A
C310        C382   1.474       .  S
O311       Cr318   1.985       .  S
O312       Cr318   2.030       .  S
O312        C313   1.272       .  A
C313        O314   1.263       .  A
C313        C338   1.485   1_565  S
O314       Cr319   1.989       .  S
O315       Cr319   1.973       .  S
O315        C316   1.256       .  A
Cr317       O320   1.781       .  S
Cr318       O320   1.778       .  S
Cr319       O320   1.777       .  S
O321       Cr339   1.972       .  S
O321        C329   1.259       .  A
O322       Cr339   2.016       .  S
O322        C323   1.266       .  A
C323        O324   1.261       .  A
C323        C974   1.486       .  S
O324       Cr340   1.987       .  S
O325       Cr340   2.029       .  S
O325        C326   1.269       .  A
C326        O327   1.260       .  A
C326        C967   1.492       .  S
O327       Cr341   1.977       .  S
O328       Cr341   2.011       .  S
O328        C329   1.267       .  A
C329       C1417   1.474       .  S
O330       Cr339   2.019       .  S
O330        C338   1.266       .  A
O331       Cr339   1.974       .  S
O331        C332   1.259       .  A
C332        O333   1.269       .  A
C332        C360   1.462       .  S
O333       Cr340   2.008       .  S
O334       Cr340   1.983       .  S
O334        C335   1.257       .  A
C335        O336   1.268       .  A
O336       Cr341   2.000       .  S
O337       Cr341   1.995       .  S
O337        C338   1.262       .  A
Cr339       O342   1.775       .  S
Cr340       O342   1.781       .  S
Cr341       O342   1.769       .  S
O343       Cr361   1.952       .  S
O343        C351   1.250       .  A
O344       Cr361   1.985       .  S
O344        C345   1.262       .  A
C345        O346   1.263       .  A
C345       C1657   1.479       .  S
O346       Cr362   1.995       .  S
O347       Cr362   1.986       .  S
O347        C348   1.258       .  A
C348        O349   1.263       .  A
C348       C1237   1.497       .  S
O349       Cr363   2.016       .  S
O350       Cr363   2.018       .  S
O350        C351   1.271       .  A
C351        C954   1.498       .  S
O352       Cr361   1.986       .  S
O352        C360   1.263       .  A
O353       Cr361   1.968       .  S
O353        C354   1.254       .  A
C354        O355   1.262       .  A
C354        C379   1.458   1_545  S
O355       Cr362   1.991       .  S
O356       Cr362   1.995       .  S
O356        C357   1.267       .  A
C357        O358   1.264       .  A
O358       Cr363   2.001       .  S
O359       Cr363   1.990       .  S
O359        C360   1.262       .  A
Cr361       O364   1.771       .  S
Cr362       O364   1.773       .  S
Cr363       O364   1.786       .  S
O365       Cr383   1.997       .  S
O365        C373   1.263       .  A
O366       Cr383   2.010       .  S
O366        C367   1.260       .  A
C367        O368   1.255       .  A
C367       C1067   1.501       .  S
O368       Cr384   1.988       .  S
O369       Cr384   1.972       .  S
O369        C370   1.261       .  A
C370        O371   1.270       .  A
C370       C1664   1.474       .  S
O371       Cr385   2.014       .  S
O372       Cr385   1.976       .  S
O372        C373   1.258       .  A
C373       C1107   1.475       .  S
O374       Cr383   1.986       .  S
O374        C382   1.263       .  A
O375       Cr383   2.016       .  S
O375        C376   1.271       .  A
C376        O377   1.258       .  A
O377       Cr384   1.955       .  S
O378       Cr384   1.993       .  S
O378        C379   1.257       .  A
C379        O380   1.257       .  A
O380       Cr385   1.978       .  S
O381       Cr385   2.003       .  S
O381        C382   1.265       .  A
Cr383       O386   1.775       .  S
Cr384       O386   1.778       .  S
Cr385       O386   1.774       .  S
C387        C388   1.385       .  D
C387        C987   1.528       .  S
C387       C1007   1.503       .  S
C388        C934   1.532       .  S
C388        C944   1.505       .  S
C389        C390   1.378       .  D
C389        C917   1.510       .  S
C389        C927   1.513       .  S
C390        C894   1.512       .  S
C390        C904   1.508       .  S
C391        C392   1.381       .  D
C391        C874   1.512       .  S
C391        C884   1.508       .  S
C392        C957   1.515       .  S
C392        C977   1.529       .  S
O393       Cr411   1.985       .  S
O393        C401   1.262       .  A
O394       Cr411   2.005       .  S
O394        C395   1.262       .  A
C395        O396   1.259       .  A
C395        C867   1.486       .  S
O396       Cr412   1.988       .  S
O397       Cr412   2.009       .  S
O397        C398   1.266       .  A
C398        O399   1.258       .  A
C398       C1044   1.471       .  S
O399       Cr413   1.970       .  S
O400       Cr413   1.998       .  S
O400        C401   1.264       .  A
C401       C1457   1.484       .  S
O402       Cr411   1.998       .  S
O402        C410   1.262       .  A
O403       Cr411   1.967       .  S
O403        C404   1.259       .  A
C404        O405   1.269       .  A
C404        C520   1.457       .  S
O405       Cr412   2.004       .  S
O406       Cr412   1.989       .  S
O406        C407   1.258       .  A
C407        O408   1.263       .  A
C407        C451   1.468       .  S
O408       Cr413   1.989       .  S
O409       Cr413   1.974       .  S
O409        C410   1.259       .  A
C410        C429   1.452   1_554  S
Cr411       O414   1.771       .  S
Cr412       O414   1.772       .  S
Cr413       O414   1.769       .  S
O415       Cr433   2.001       .  S
O415        C423   1.262       .  A
O416       Cr433   2.000       .  S
O416        C417   1.266       .  A
C417        O418   1.263       .  A
C417        C854   1.480       .  S
O418       Cr434   1.986       .  S
O419       Cr434   1.987       .  S
O419        C420   1.257       .  A
C420        O421   1.271       .  A
C420       C1467   1.516       .  S
O421       Cr435   2.024       .  S
O422       Cr435   1.995       .  S
O422        C423   1.261       .  A
C423       C1117   1.505       .  S
O424       Cr433   1.988       .  S
O424        C432   1.264       .  A
O425       Cr433   1.994       .  S
O425        C426   1.260       .  A
C426        O427   1.260       .  A
C426        C492   1.464       .  S
O427       Cr434   1.981       .  S
O428       Cr434   1.979       .  S
O428        C429   1.260       .  A
C429        O430   1.262       .  A
O430       Cr435   1.989       .  S
O431       Cr435   1.991       .  S
O431        C432   1.263       .  A
C432        C476   1.465       .  S
Cr433       O436   1.776       .  S
Cr434       O436   1.771       .  S
Cr435       O436   1.771       .  S
O437       Cr455   1.953       .  S
O437        C445   1.251       .  A
O438       Cr455   1.980       .  S
O438        C439   1.259       .  A
C439        O440   1.261       .  A
C439       C1494   1.481       .  S
O440       Cr456   1.991       .  S
O441       Cr456   2.016       .  S
O441        C442   1.268       .  A
C442        O443   1.246       .  A
C442       C1024   1.491       .  S
O443       Cr457   1.942       .  S
O444       Cr457   1.999       .  S
O444        C445   1.265       .  A
C445       C1197   1.493       .  S
O446       Cr455   2.000       .  S
O446        C454   1.260       .  A
O447       Cr455   1.962       .  S
O447        C448   1.253       .  A
C448        O449   1.263       .  A
C448        C470   1.460   1_554  S
O449       Cr456   1.996       .  S
O450       Cr456   1.975       .  S
O450        C451   1.262       .  A
C451        O452   1.266       .  A
O452       Cr457   2.001       .  S
O453       Cr457   1.945       .  S
O453        C454   1.251       .  A
C454        C561   1.457       .  S
Cr455       O458   1.784       .  S
Cr456       O458   1.790       .  S
Cr457       O458   1.783       .  S
O459       Cr477   2.002       .  S
O459        C467   1.264       .  A
O460       Cr477   1.970       .  S
O460        C461   1.255       .  A
C461        O462   1.264       .  A
C461       C1504   1.470       .  S
O462       Cr478   2.000       .  S
O463       Cr478   2.009       .  S
O463        C464   1.261       .  A
C464        O465   1.252       .  A
C464        C907   1.507       .  S
O465       Cr479   1.979       .  S
O466       Cr479   1.994       .  S
O466        C467   1.265       .  A
C467       C1097   1.489       .  S
O468       Cr477   1.979       .  S
O468        C476   1.256       .  A
O469       Cr477   1.991       .  S
O469        C470   1.261       .  A
C470        O471   1.264       .  A
O471       Cr478   1.977       .  S
O472       Cr478   2.019       .  S
O472        C473   1.270       .  A
C473        O474   1.270       .  A
C473        C536   1.485       .  S
O474       Cr479   1.998       .  S
O475       Cr479   1.996       .  S
O475        C476   1.262       .  A
Cr477       O480   1.785       .  S
Cr478       O480   1.775       .  S
Cr479       O480   1.765       .  S
O481       Cr499   2.005       .  S
O481        C489   1.266       .  A
O482       Cr499   2.025       .  S
O482        C483   1.268       .  A
C483        O484   1.249       .  A
C483        C844   1.512       .  S
O484       Cr500   1.973       .  S
O485       Cr500   1.998       .  S
O485        C486   1.264       .  A
C486        O487   1.266       .  A
C486        C887   1.497       .  S
O487       Cr501   2.003       .  S
O488       Cr501   1.970       .  S
O488        C489   1.257       .  A
C489       C1547   1.477       .  S
O490       Cr499   2.003       .  S
O490        C498   1.266       .  A
O491       Cr499   1.998       .  S
O491        C492   1.270       .  A
C492        O493   1.266       .  A
O493       Cr500   1.984       .  S
O494       Cr500   1.986       .  S
O494        C495   1.259       .  A
C495        O496   1.253       .  A
C495        C542   1.454       .  S
O496       Cr501   1.973       .  S
O497       Cr501   1.989       .  S
O497        C498   1.261       .  A
C498        C514   1.477   1_556  S
Cr499       O502   1.775       .  S
Cr500       O502   1.775       .  S
Cr501       O502   1.776       .  S
O503       Cr521   1.994       .  S
O503        C511   1.261       .  A
O504       Cr521   1.978       .  S
O504        C505   1.260       .  A
C505        O506   1.263       .  A
C505       C1537   1.467       .  S
O506       Cr522   1.989       .  S
O507       Cr522   1.984       .  S
O507        C508   1.258       .  A
C508        O509   1.261       .  A
C508       C1277   1.478       .  S
O509       Cr523   1.994       .  S
O510       Cr523   2.001       .  S
O510        C511   1.262       .  A
C511        C834   1.495       .  S
O512       Cr521   1.973       .  S
O512        C520   1.261       .  A
O513       Cr521   2.007       .  S
O513        C514   1.262       .  A
C514        O515   1.263       .  A
O515       Cr522   1.988       .  S
O516       Cr522   1.993       .  S
O516        C517   1.266       .  A
C517        O518   1.263       .  A
C517        C564   1.467       .  S
O518       Cr523   1.990       .  S
O519       Cr523   1.996       .  S
O519        C520   1.264       .  A
Cr521       O524   1.773       .  S
Cr522       O524   1.775       .  S
Cr523       O524   1.778       .  S
O525       Cr543   1.990       .  S
O525        C533   1.261       .  A
O526       Cr543   1.995       .  S
O526        C527   1.260       .  A
C527        O528   1.258       .  A
C527        C897   1.479       .  S
O528       Cr544   1.983       .  S
O529       Cr544   2.005       .  S
O529        C530   1.266       .  A
C530        O531   1.262       .  A
C530       C1167   1.477       .  S
O531       Cr545   1.979       .  S
O532       Cr545   1.997       .  S
O532        C533   1.261       .  A
C533        C877   1.482       .  S
O534       Cr543   1.985       .  S
O534        C542   1.263       .  A
O535       Cr543   1.989       .  S
O535        C536   1.262       .  A
C536        O537   1.272       .  A
O537       Cr544   2.025       .  S
O538       Cr544   1.988       .  S
O538        C539   1.264       .  A
C539        O540   1.258       .  A
C539        C558   1.463   1_556  S
O540       Cr545   1.987       .  S
O541       Cr545   1.978       .  S
O541        C542   1.260       .  A
Cr543       O546   1.775       .  S
Cr544       O546   1.771       .  S
Cr545       O546   1.778       .  S
O547       Cr565   2.028       .  S
O547        C555   1.272       .  A
O548       Cr565   2.002       .  S
O548        C549   1.262       .  A
C549        O550   1.259       .  A
C549       C1154   1.487       .  S
O550       Cr566   1.981       .  S
O551       Cr566   2.006       .  S
O551        C552   1.265       .  A
C552        O553   1.261       .  A
C552       C1177   1.484       .  S
O553       Cr567   1.985       .  S
O554       Cr567   1.970       .  S
O554        C555   1.253       .  A
C555       C1254   1.511       .  S
O556       Cr565   1.994       .  S
O556        C564   1.265       .  A
O557       Cr565   1.995       .  S
O557        C558   1.266       .  A
C558        O559   1.261       .  A
O559       Cr566   1.984       .  S
O560       Cr566   1.988       .  S
O560        C561   1.254       .  A
C561        O562   1.260       .  A
O562       Cr567   1.968       .  S
O563       Cr567   1.988       .  S
O563        C564   1.262       .  A
Cr565       O568   1.777       .  S
Cr566       O568   1.782       .  S
Cr567       O568   1.767       .  S
C569        C570   1.376       .  D
C569        C847   1.520       .  S
C569        C857   1.498       .  S
C570        C814   1.504       .  S
C570        C824   1.527       .  S
C571        C572   1.387       .  D
C571       C1294   1.517   1_655  S
C571       C1334   1.508       .  S
C572        C797   1.526   1_655  S
C572        C804   1.537       .  S
C573        C574   1.385       .  D
C573        C964   1.526       .  S
C573        C994   1.504       .  S
C574        C777   1.529       .  S
C574        C784   1.510       .  S
C575        C576   1.384       .  D
C575        C754   1.521       .  S
C575        C764   1.517       .  S
C576        C837   1.510       .  S
C576        C864   1.519       .  S
O577       Cr595   1.985       .  S
O577        C585   1.260       .  A
O578       Cr595   1.991       .  S
O578        C579   1.261       .  A
C579        O580   1.260       .  A
C579       C1614   1.491       .  S
O580       Cr596   1.992       .  S
O581       Cr596   2.008       .  S
O581        C582   1.265       .  A
C582        O583   1.256       .  A
C582       C1204   1.474       .  S
O583       Cr597   1.970       .  S
O584       Cr597   2.001       .  S
O584        C585   1.263       .  A
C585       C1074   1.478       .  S
O586       Cr595   1.988       .  S
O586        C594   1.263       .  A
O587       Cr595   1.974       .  S
O587        C588   1.258       .  A
C588        O589   1.268       .  A
C588        C616   1.465   1_455  S
O589       Cr596   2.011       .  S
O590       Cr596   1.987       .  S
O590        C591   1.263       .  A
C591        O592   1.266       .  A
C591        C704   1.478       .  S
O592       Cr597   2.016       .  S
O593       Cr597   1.968       .  S
O593        C594   1.260       .  A
C594        C660   1.448       .  S
Cr595       O598   1.775       .  S
Cr596       O598   1.769       .  S
Cr597       O598   1.776       .  S
O599       Cr617   2.053       .  S
O599        C607   1.271       .  A
O600       Cr617   2.021       .  S
O600        C601   1.267       .  A
C601        O602   1.260       .  A
C601        C937   1.495       .  S
O602       Cr618   1.977       .  S
O603       Cr618   2.009       .  S
O603        C604   1.270       .  A
C604        O605   1.266       .  A
C604        C767   1.480       .  S
O605       Cr619   1.984       .  S
O606       Cr619   1.981       .  S
O606        C607   1.248       .  A
C607       C1627   1.524       .  S
O608       Cr617   2.031       .  S
O608        C616   1.276       .  A
O609       Cr617   2.016       .  S
O609        C610   1.272       .  A
C610        O611   1.262       .  A
C610        C632   1.489       .  S
O611       Cr618   1.994       .  S
O612       Cr618   1.984       .  S
O612        C613   1.256       .  A
C613        O614   1.254       .  A
C613        C676   1.461       .  S
O614       Cr619   1.986       .  S
O615       Cr619   1.965       .  S
O615        C616   1.262       .  A
Cr617       O620   1.784       .  S
Cr618       O620   1.782       .  S
Cr619       O620   1.784       .  S
O621       Cr639   2.031       .  S
O621        C629   1.272       .  A
O622       Cr639   1.984       .  S
O622        C623   1.258       .  A
C623        O624   1.262       .  A
C623        C947   1.489       .  S
O624       Cr640   1.997       .  S
O625       Cr640   2.015       .  S
O625        C626   1.266       .  A
C626        O627   1.262       .  A
C626       C1387   1.490       .  S
O627       Cr641   1.984       .  S
O628       Cr641   1.960       .  S
O628        C629   1.253       .  A
C629        C827   1.506       .  S
O630       Cr639   1.997       .  S
O630        C638   1.262       .  A
O631       Cr639   2.009       .  S
O631        C632   1.272       .  A
C632        O633   1.266       .  A
O633       Cr640   2.010       .  S
O634       Cr640   1.985       .  S
O634        C635   1.259       .  A
C635        O636   1.252       .  A
C635        C657   1.450   1_655  S
O636       Cr641   1.955       .  S
O637       Cr641   1.995       .  S
O637        C638   1.260       .  A
C638        C720   1.478       .  S
Cr639       O642   1.790       .  S
Cr640       O642   1.797       .  S
Cr641       O642   1.785       .  S
O643       Cr661   1.976       .  S
O643        C651   1.259       .  A
O644       Cr661   2.010       .  S
O644        C645   1.266       .  A
C645        O646   1.258       .  A
C645        C924   1.475       .  S
O646       Cr662   1.972       .  S
O647       Cr662   1.996       .  S
O647        C648   1.262       .  A
C648        O649   1.259       .  A
C648       C1377   1.472       .  S
O649       Cr663   1.982       .  S
O650       Cr663   1.992       .  S
O650        C651   1.262       .  A
C651       C1084   1.469       .  S
O652       Cr661   1.993       .  S
O652        C660   1.262       .  A
O653       Cr661   1.985       .  S
O653        C654   1.257       .  A
C654        O655   1.264       .  A
C654        C745   1.469       .  S
O655       Cr662   2.003       .  S
O656       Cr662   1.965       .  S
O656        C657   1.260       .  A
C657        O658   1.262       .  A
O658       Cr663   1.996       .  S
O659       Cr663   1.962       .  S
O659        C660   1.257       .  A
Cr661       O664   1.774       .  S
Cr662       O664   1.765       .  S
Cr663       O664   1.777       .  S
O665       Cr683   1.981       .  S
O665        C673   1.258       .  A
O666       Cr683   2.000       .  S
O666        C667   1.265       .  A
C667        O668   1.264       .  A
C667        C757   1.482       .  S
O668       Cr684   1.988       .  S
O669       Cr684   1.975       .  S
O669        C670   1.255       .  A
C670        O671   1.272       .  A
C670        C774   1.512       .  S
O671       Cr685   2.025       .  S
O672       Cr685   2.024       .  S
O672        C673   1.265       .  A
C673        C807   1.505       .  S
O674       Cr683   1.991       .  S
O674        C682   1.266       .  A
O675       Cr683   1.985       .  S
O675        C676   1.259       .  A
C676        O677   1.256       .  A
O677       Cr684   1.983       .  S
O678       Cr684   1.983       .  S
O678        C679   1.262       .  A
C679        O680   1.264       .  A
C679        C726   1.464       .  S
O680       Cr685   1.999       .  S
O681       Cr685   1.987       .  S
O681        C682   1.262       .  A
C682        C698   1.464   1_655  S
Cr683       O686   1.775       .  S
Cr684       O686   1.771       .  S
Cr685       O686   1.784       .  S
O687       Cr705   2.004       .  S
O687        C695   1.262       .  A
O688       Cr705   1.969       .  S
O688        C689   1.260       .  A
C689        O690   1.266       .  A
C689        C794   1.472       .  S
O690       Cr706   2.011       .  S
O691       Cr706   1.976       .  S
O691        C692   1.253       .  A
C692        O693   1.271       .  A
C692       C1227   1.493       .  S
O693       Cr707   2.011       .  S
O694       Cr707   1.986       .  S
O694        C695   1.255       .  A
C695       C1187   1.489       .  S
O696       Cr705   1.970       .  S
O696        C704   1.261       .  A
O697       Cr705   1.994       .  S
O697        C698   1.263       .  A
C698        O699   1.260       .  A
O699       Cr706   1.979       .  S
O700       Cr706   2.027       .  S
O700        C701   1.271       .  A
C701        O702   1.263       .  A
C701        C748   1.485       .  S
O702       Cr707   1.983       .  S
O703       Cr707   2.038       .  S
O703        C704   1.275       .  A
Cr705       O708   1.767       .  S
Cr706       O708   1.780       .  S
Cr707       O708   1.771       .  S
O709       Cr727   2.006       .  S
O709        C717   1.262       .  A
O710       Cr727   1.987       .  S
O710        C711   1.260       .  A
C711        O712   1.265       .  A
C711        C817   1.480       .  S
O712       Cr728   2.001       .  S
O713       Cr728   1.978       .  S
O713        C714   1.256       .  A
C714        O715   1.266       .  A
C714       C1707   1.480       .  S
O715       Cr729   1.998       .  S
O716       Cr729   1.986       .  S
O716        C717   1.257       .  A
C717        C787   1.486       .  S
O718       Cr727   1.971       .  S
O718        C726   1.260       .  A
O719       Cr727   2.006       .  S
O719        C720   1.267       .  A
C720        O721   1.263       .  A
O721       Cr728   1.997       .  S
O722       Cr728   2.020       .  S
O722        C723   1.268       .  A
C723        O724   1.265       .  A
C723        C742   1.496   1_655  S
O724       Cr729   2.005       .  S
O725       Cr729   2.011       .  S
O725        C726   1.270       .  A
Cr727       O730   1.777       .  S
Cr728       O730   1.773       .  S
Cr729       O730   1.780       .  S
O731       Cr749   2.001       .  S
O731        C739   1.269       .  A
O732       Cr749   1.979       .  S
O732        C733   1.250       .  A
C733        O734   1.257       .  A
C733       C1694   1.490       .  S
O734       Cr750   1.986       .  S
O735       Cr750   2.008       .  S
O735        C736   1.263       .  A
C736        O737   1.255       .  A
C736        C914   1.496       .  S
O737       Cr751   1.980       .  S
O738       Cr751   1.985       .  S
O738        C739   1.257       .  A
C739       C1244   1.481       .  S
O740       Cr749   1.997       .  S
O740        C748   1.263       .  A
O741       Cr749   2.039       .  S
O741        C742   1.276       .  A
C742        O743   1.269       .  A
O743       Cr750   1.996       .  S
O744       Cr750   2.006       .  S
O744        C745   1.268       .  A
C745        O746   1.265       .  A
O746       Cr751   1.983       .  S
O747       Cr751   2.007       .  S
O747        C748   1.265       .  A
Cr749       O752   1.772       .  S
Cr750       O752   1.779       .  S
Cr751       O752   1.777       .  S
C753        C754   1.422       .  A
C753        C758   1.413       .  A
C753       Br760   1.921       .  S
C754        C755   1.420       .  A
C755        C756   1.407       .  A
C755       Br762   1.923       .  S
C756        C757   1.405       .  A
C756       Br761   1.933       .  S
C757        C758   1.408       .  A
C758       Br759   1.931       .  S
C763        C764   1.420       .  A
C763        C768   1.406       .  A
C763       Br770   1.923       .  S
C764        C765   1.420       .  A
C765        C766   1.414       .  A
C765       Br772   1.922       .  S
C766        C767   1.409       .  A
C766       Br771   1.931       .  S
C767        C768   1.404       .  A
C768       Br769   1.934       .  S
C773        C774   1.423       .  A
C773        C778   1.422       .  A
C773       Br780   1.926       .  S
C774        C775   1.434       .  A
C775        C776   1.400       .  A
C775       Br782   1.939       .  S
C776        C777   1.398       .  A
C776       Br781   1.920       .  S
C777        C778   1.410       .  A
C778       Br779   1.921       .  S
C783        C784   1.420       .  A
C783        C788   1.411       .  A
C783       Br790   1.929       .  S
C784        C785   1.414       .  A
C785        C786   1.411       .  A
C785       Br792   1.923       .  S
C786        C787   1.411       .  A
C786       Br791   1.932       .  S
C787        C788   1.408       .  A
C788       Br789   1.932       .  S
C793        C794   1.408       .  A
C793        C798   1.404       .  A
C793       Br800   1.932       .  S
C794        C795   1.405       .  A
C795        C796   1.403       .  A
C795       Br802   1.929       .  S
C796        C797   1.416       .  A
C796       Br801   1.924       .  S
C797        C798   1.415       .  A
C798       Br799   1.922       .  S
C803        C804   1.410       .  A
C803        C808   1.414       .  A
C803       Br810   1.919       .  S
C804        C805   1.403       .  A
C805        C806   1.407       .  A
C805       Br812   1.923       .  S
C806        C807   1.420       .  A
C806       Br811   1.923       .  S
C807        C808   1.424       .  A
C808       Br809   1.931       .  S
C813        C814   1.416       .  A
C813        C818   1.405       .  A
C813       Br820   1.931       .  S
C814        C815   1.415       .  A
C815        C816   1.409       .  A
C815       Br822   1.921       .  S
C816        C817   1.407       .  A
C816       Br821   1.931       .  S
C817        C818   1.408       .  A
C818       Br819   1.927       .  S
C823        C824   1.410       .  A
C823        C828   1.424       .  A
C823       Br830   1.924       .  S
C824        C825   1.396       .  A
C825        C826   1.397       .  A
C825       Br832   1.917       .  S
C826        C827   1.429       .  A
C826       Br831   1.933       .  S
C827        C828   1.420       .  A
C828       Br829   1.920       .  S
C833        C834   1.416       .  A
C833        C838   1.410       .  A
C833       Br840   1.924       .  S
C834        C835   1.415       .  A
C835        C836   1.405       .  A
C835       Br842   1.939       .  S
C836        C837   1.417       .  A
C836       Br841   1.925       .  S
C837        C838   1.412       .  A
C838       Br839   1.923       .  S
C843        C844   1.437       .  A
C843        C848   1.412       .  A
C843       Br850   1.940       .  S
C844        C845   1.417       .  A
C845        C846   1.405       .  A
C845       Br852   1.916       .  S
C846        C847   1.403       .  A
C846       Br851   1.919       .  S
C847        C848   1.402       .  A
C848       Br849   1.920       .  S
C853        C854   1.407       .  A
C853        C858   1.405       .  A
C853       Br860   1.924       .  S
C854        C855   1.410       .  A
C855        C856   1.409       .  A
C855       Br862   1.930       .  S
C856        C857   1.412       .  A
C856       Br861   1.922       .  S
C857        C858   1.414       .  A
C858       Br859   1.928       .  S
C863        C864   1.419       .  A
C863        C868   1.415       .  A
C863       Br870   1.924       .  S
C864        C865   1.421       .  A
C865        C866   1.406       .  A
C865       Br872   1.923       .  S
C866        C867   1.405       .  A
C866       Br871   1.934       .  S
C867        C868   1.409       .  A
C868       Br869   1.923       .  S
C873        C874   1.417       .  A
C873        C878   1.413       .  A
C873       Br880   1.925       .  S
C874        C875   1.419       .  A
C875        C876   1.405       .  A
C875       Br882   1.924       .  S
C876        C877   1.406       .  A
C876       Br881   1.934       .  S
C877        C878   1.413       .  A
C878       Br879   1.932       .  S
C883        C884   1.417       .  A
C883        C888   1.402       .  A
C883       Br890   1.928       .  S
C884        C885   1.413       .  A
C885        C886   1.415       .  A
C885       Br892   1.925       .  S
C886        C887   1.418       .  A
C886       Br891   1.928       .  S
C887        C888   1.414       .  A
C888       Br889   1.938       .  S
C893        C894   1.419       .  A
C893        C898   1.404       .  A
C893       Br900   1.924       .  S
C894        C895   1.419       .  A
C895        C896   1.412       .  A
C895       Br902   1.926       .  S
C896        C897   1.410       .  A
C896       Br901   1.930       .  S
C897        C898   1.405       .  A
C898       Br899   1.934       .  S
C903        C904   1.410       .  A
C903        C908   1.415       .  A
C903       Br910   1.927       .  S
C904        C905   1.409       .  A
C905        C906   1.403       .  A
C905       Br912   1.929       .  S
C906        C907   1.429       .  A
C906       Br911   1.948       .  S
C907        C908   1.423       .  A
C908       Br909   1.927       .  S
C913        C914   1.407       .  A
C913        C918   1.411       .  A
C913       Br920   1.918       .  S
C914        C915   1.414       .  A
C915        C916   1.402       .  A
C915       Br922   1.941       .  S
C916        C917   1.417       .  A
C916       Br921   1.924       .  S
C917        C918   1.420       .  A
C918       Br919   1.923       .  S
C923        C924   1.405       .  A
C923        C928   1.404       .  A
C923       Br930   1.934       .  S
C924        C925   1.407       .  A
C925        C926   1.412       .  A
C925       Br932   1.931       .  S
C926        C927   1.420       .  A
C926       Br931   1.922       .  S
C927        C928   1.418       .  A
C928       Br929   1.923       .  S
C933        C934   1.409       .  A
C933        C938   1.415       .  A
C933       Br940   1.922       .  S
C934        C935   1.409       .  A
C935        C936   1.408       .  A
C935       Br942   1.918       .  S
C936        C937   1.416       .  A
C936       Br941   1.928       .  S
C937        C938   1.412       .  A
C938       Br939   1.916       .  S
C943        C944   1.415       .  A
C943        C948   1.412       .  A
C943       Br950   1.924       .  S
C944        C945   1.414       .  A
C945        C946   1.407       .  A
C945       Br952   1.931       .  S
C946        C947   1.413       .  A
C946       Br951   1.926       .  S
C947        C948   1.413       .  A
C948       Br949   1.933       .  S
C953        C954   1.429       .  A
C953        C958   1.399       .  A
C953       Br960   1.945       .  S
C954        C955   1.410       .  A
C955        C956   1.415       .  A
C955       Br962   1.925       .  S
C956        C957   1.422       .  A
C956       Br961   1.919       .  S
C957        C958   1.406       .  A
C958       Br959   1.929       .  S
C963        C964   1.410       .  A
C963        C968   1.411       .  A
C963       Br970   1.916       .  S
C964        C965   1.409       .  A
C965        C966   1.413       .  A
C965       Br972   1.920       .  S
C966        C967   1.412       .  A
C966       Br971   1.926       .  S
C967        C968   1.416       .  A
C968       Br969   1.929       .  S
C973        C974   1.406       .  A
C973        C978   1.411       .  A
C973       Br980   1.931       .  S
C974        C975   1.405       .  A
C975        C976   1.416       .  A
C975       Br982   1.933       .  S
C976        C977   1.426       .  A
C976       Br981   1.917       .  S
C977        C978   1.421       .  A
C978       Br979   1.927       .  S
C983        C984   1.413       .  A
C983        C988   1.413       .  A
C983       Br990   1.927       .  S
C984        C985   1.412       .  A
C985        C986   1.410       .  A
C985       Br992   1.925       .  S
C986        C987   1.409       .  A
C986       Br991   1.919       .  S
C987        C988   1.412       .  A
C988       Br989   1.916       .  S
C993        C994   1.416       .  A
C993        C998   1.413       .  A
C993      Br1000   1.928       .  S
C994        C995   1.407       .  A
C995        C996   1.407       .  A
C995      Br1002   1.926       .  S
C996        C997   1.424       .  A
C996      Br1001   1.939       .  S
C997        C998   1.419       .  A
C998       Br999   1.935       .  S
C1003      C1004   1.410       .  A
C1003      C1008   1.412       .  A
C1003     Br1010   1.930       .  S
C1004      C1005   1.405       .  A
C1005      C1006   1.406       .  A
C1005     Br1012   1.922       .  S
C1006      C1007   1.415       .  A
C1006     Br1011   1.927       .  S
C1007      C1008   1.416       .  A
C1008     Br1009   1.923       .  S
C1013      C1014   1.414       .  A
C1013      C1018   1.403       .  A
C1013     Br1020   1.925       .  S
C1014      C1015   1.409       .  A
C1015      C1016   1.406       .  A
C1015     Br1022   1.920       .  S
C1016      C1017   1.412       .  A
C1016     Br1021   1.926       .  S
C1017      C1018   1.409       .  A
C1018     Br1019   1.932       .  S
C1023      C1024   1.425       .  A
C1023      C1028   1.403       .  A
C1023     Br1030   1.939       .  S
C1024      C1025   1.406       .  A
C1025      C1026   1.414       .  A
C1025     Br1032   1.926       .  S
C1026      C1027   1.423       .  A
C1026     Br1031   1.923       .  S
C1027      C1028   1.405       .  A
C1028     Br1029   1.926       .  S
C1033      C1034   1.410       .  A
C1033      C1038   1.403       .  A
C1033     Br1040   1.933       .  S
C1034      C1035   1.413       .  A
C1035      C1036   1.409       .  A
C1035     Br1042   1.926       .  S
C1036      C1037   1.409       .  A
C1036     Br1041   1.921       .  S
C1037      C1038   1.415       .  A
C1038     Br1039   1.923       .  S
C1043      C1044   1.401       .  A
C1043      C1048   1.407       .  A
C1043     Br1050   1.931       .  S
C1044      C1045   1.407       .  A
C1045      C1046   1.408       .  A
C1045     Br1052   1.929       .  S
C1046      C1047   1.416       .  A
C1046     Br1051   1.923       .  S
C1047      C1048   1.422       .  A
C1048     Br1049   1.920       .  S
C1053      C1054   1.411       .  A
C1053      C1058   1.407       .  A
C1053     Br1060   1.923       .  S
C1054      C1055   1.415       .  A
C1055      C1056   1.402       .  A
C1055     Br1062   1.929       .  S
C1056      C1057   1.416       .  A
C1056     Br1061   1.934       .  S
C1057      C1058   1.415       .  A
C1058     Br1059   1.925       .  S
C1063      C1064   1.417       .  A
C1063      C1068   1.416       .  A
C1063     Br1070   1.924       .  S
C1064      C1065   1.417       .  A
C1065      C1066   1.405       .  A
C1065     Br1072   1.931       .  S
C1066      C1067   1.419       .  A
C1066     Br1071   1.942       .  S
C1067      C1068   1.417       .  A
C1068     Br1069   1.929       .  S
C1073      C1074   1.404       .  A
C1073      C1078   1.407       .  A
C1073     Br1080   1.933       .  S
C1074      C1075   1.405       .  A
C1075      C1076   1.412       .  A
C1075     Br1082   1.933       .  S
C1076      C1077   1.424       .  A
C1076     Br1081   1.919       .  S
C1077      C1078   1.421       .  A
C1078     Br1079   1.924       .  S
C1083      C1084   1.404       .  A
C1083      C1088   1.408       .  A
C1083     Br1090   1.933       .  S
C1084      C1085   1.403       .  A
C1085      C1086   1.403       .  A
C1085     Br1092   1.934       .  S
C1086      C1087   1.420       .  A
C1086     Br1091   1.924       .  S
C1087      C1088   1.421       .  A
C1088     Br1089   1.919       .  S
C1093      C1094   1.412       .  A
C1093      C1098   1.413       .  A
C1093     Br1100   1.928       .  S
C1094      C1095   1.419       .  A
C1095      C1096   1.406       .  A
C1095     Br1102   1.924       .  S
C1096      C1097   1.408       .  A
C1096     Br1101   1.935       .  S
C1097      C1098   1.417       .  A
C1098     Br1099   1.930       .  S
C1103      C1104   1.429       .  A
C1103      C1108   1.413       .  A
C1103     Br1110   1.918       .  S
C1104      C1105   1.421       .  A
C1105      C1106   1.405       .  A
C1105     Br1112   1.922       .  S
C1106      C1107   1.402       .  A
C1106     Br1111   1.932       .  S
C1107      C1108   1.400       .  A
C1108     Br1109   1.929       .  S
C1113      C1114   1.409       .  A
C1113      C1118   1.412       .  A
C1113     Br1120   1.925       .  S
C1114      C1115   1.416       .  A
C1115      C1116   1.406       .  A
C1115     Br1122   1.929       .  S
C1116      C1117   1.420       .  A
C1116     Br1121   1.938       .  S
C1117      C1118   1.422       .  A
C1118     Br1119   1.925       .  S
C1123      C1124   1.404       .  A
C1123      C1128   1.408       .  A
C1123     Br1130   1.932       .  S
C1124      C1125   1.401       .  A
C1125      C1126   1.414       .  A
C1125     Br1132   1.928       .  S
C1126      C1127   1.428       .  A
C1126     Br1131   1.918       .  S
C1127      C1128   1.421       .  A
C1128     Br1129   1.924       .  S
C1133      C1134   1.422       .  A
C1133      C1138   1.408       .  A
C1133     Br1140   1.939       .  S
C1134      C1135   1.415       .  A
C1135      C1136   1.405       .  A
C1135     Br1142   1.921       .  S
C1136      C1137   1.410       .  A
C1136     Br1141   1.921       .  S
C1137      C1138   1.416       .  A
C1138     Br1139   1.929       .  S
C1143      C1144   1.405       .  A
C1143      C1148   1.404       .  A
C1143     Br1150   1.934       .  S
C1144      C1145   1.408       .  A
C1145      C1146   1.414       .  A
C1145     Br1152   1.919       .  S
C1146      C1147   1.417       .  A
C1146     Br1151   1.923       .  S
C1147      C1148   1.420       .  A
C1148     Br1149   1.923       .  S
C1153      C1154   1.412       .  A
C1153      C1158   1.406       .  A
C1153     Br1160   1.922       .  S
C1154      C1155   1.413       .  A
C1155      C1156   1.409       .  A
C1155     Br1162   1.937       .  S
C1156      C1157   1.419       .  A
C1156     Br1161   1.927       .  S
C1157      C1158   1.411       .  A
C1158     Br1159   1.923       .  S
C1163      C1164   1.422       .  A
C1163      C1168   1.413       .  A
C1163     Br1170   1.920       .  S
C1164      C1165   1.421       .  A
C1165      C1166   1.405       .  A
C1165     Br1172   1.925       .  S
C1166      C1167   1.404       .  A
C1166     Br1171   1.934       .  S
C1167      C1168   1.406       .  A
C1168     Br1169   1.932       .  S
C1173      C1174   1.423       .  A
C1173      C1178   1.413       .  A
C1173     Br1180   1.918       .  S
C1174      C1175   1.420       .  A
C1175      C1176   1.408       .  A
C1175     Br1182   1.926       .  S
C1176      C1177   1.407       .  A
C1176     Br1181   1.933       .  S
C1177      C1178   1.408       .  A
C1178     Br1179   1.935       .  S
C1183      C1184   1.419       .  A
C1183      C1188   1.403       .  A
C1183     Br1190   1.925       .  S
C1184      C1185   1.411       .  A
C1185      C1186   1.408       .  A
C1185     Br1192   1.923       .  S
C1186      C1187   1.415       .  A
C1186     Br1191   1.925       .  S
C1187      C1188   1.409       .  A
C1188     Br1189   1.931       .  S
C1193      C1194   1.419       .  A
C1193      C1198   1.416       .  A
C1193     Br1200   1.921       .  S
C1194      C1195   1.404       .  A
C1195      C1196   1.395       .  A
C1195     Br1202   1.929       .  S
C1196      C1197   1.427       .  A
C1196     Br1201   1.946       .  S
C1197      C1198   1.417       .  A
C1198     Br1199   1.935       .  S
C1203      C1204   1.403       .  A
C1203      C1208   1.401       .  A
C1203     Br1210   1.935       .  S
C1204      C1205   1.404       .  A
C1205      C1206   1.410       .  A
C1205     Br1212   1.922       .  S
C1206      C1207   1.419       .  A
C1206     Br1211   1.921       .  S
C1207      C1208   1.420       .  A
C1208     Br1209   1.923       .  S
C1213      C1214   1.416       .  A
C1213      C1218   1.401       .  A
C1213     Br1220   1.930       .  S
C1214      C1215   1.425       .  A
C1215      C1216   1.421       .  A
C1215     Br1222   1.920       .  S
C1216      C1217   1.417       .  A
C1216     Br1221   1.933       .  S
C1217      C1218   1.424       .  A
C1218     Br1219   1.948       .  S
C1223      C1224   1.417       .  A
C1223      C1228   1.408       .  A
C1223     Br1230   1.914       .  S
C1224      C1225   1.420       .  A
C1225      C1226   1.412       .  A
C1225     Br1232   1.931       .  S
C1226      C1227   1.413       .  A
C1226     Br1231   1.929       .  S
C1227      C1228   1.405       .  A
C1228     Br1229   1.923       .  S
C1233      C1234   1.416       .  A
C1233      C1238   1.408       .  A
C1233     Br1240   1.925       .  S
C1234      C1235   1.414       .  A
C1235      C1236   1.415       .  A
C1235     Br1242   1.931       .  S
C1236      C1237   1.417       .  A
C1236     Br1241   1.923       .  S
C1237      C1238   1.414       .  A
C1238     Br1239   1.936       .  S
C1243      C1244   1.397       .  A
C1243      C1248   1.384       .  A
C1243     Br1250   1.930       .  S
C1244      C1245   1.412       .  A
C1245      C1246   1.427       .  A
C1245     Br1252   1.922       .  S
C1246      C1247   1.431       .  A
C1246     Br1251   1.918       .  S
C1247      C1248   1.418       .  A
C1248     Br1249   1.920       .  S
C1253      C1254   1.420       .  A
C1253      C1258   1.419       .  A
C1253     Br1260   1.916       .  S
C1254      C1255   1.434       .  A
C1255      C1256   1.402       .  A
C1255     Br1262   1.936       .  S
C1256      C1257   1.396       .  A
C1256     Br1261   1.918       .  S
C1257      C1258   1.408       .  A
C1258     Br1259   1.922       .  S
C1263      C1264   1.414       .  A
C1263      C1268   1.403       .  A
C1263     Br1270   1.928       .  S
C1264      C1265   1.413       .  A
C1265      C1266   1.413       .  A
C1265     Br1272   1.923       .  S
C1266      C1267   1.414       .  A
C1266     Br1271   1.931       .  S
C1267      C1268   1.407       .  A
C1268     Br1269   1.920       .  S
C1273      C1274   1.416       .  A
C1273      C1278   1.409       .  A
C1273     Br1280   1.921       .  S
C1274      C1275   1.415       .  A
C1275      C1276   1.405       .  A
C1275     Br1282   1.930       .  S
C1276      C1277   1.404       .  A
C1276     Br1281   1.921       .  S
C1277      C1278   1.407       .  A
C1278     Br1279   1.931       .  S
C1283      C1284   1.408       .  A
C1283      C1288   1.415       .  A
C1283     Br1290   1.922       .  S
C1284      C1285   1.394       .  A
C1285      C1286   1.401       .  A
C1285     Br1292   1.918       .  S
C1286      C1287   1.433       .  A
C1286     Br1291   1.934       .  S
C1287      C1288   1.420       .  A
C1288     Br1289   1.927       .  S
C1293      C1294   1.409       .  A
C1293      C1298   1.406       .  A
C1293     Br1300   1.917       .  S
C1294      C1295   1.415       .  A
C1295      C1296   1.413       .  A
C1295     Br1302   1.931       .  S
C1296      C1297   1.424       .  A
C1296     Br1301   1.935       .  S
C1297      C1298   1.416       .  A
C1298     Br1299   1.929       .  S
C1303      C1304   1.412       .  A
C1303      C1308   1.401       .  A
C1303     Br1310   1.930       .  S
C1304      C1305   1.421       .  A
C1305      C1306   1.414       .  A
C1305     Br1312   1.920       .  S
C1306      C1307   1.411       .  A
C1306     Br1311   1.927       .  S
C1307      C1308   1.422       .  A
C1308     Br1309   1.944       .  S
C1313      C1314   1.410       .  A
C1313      C1318   1.414       .  A
C1313     Br1320   1.925       .  S
C1314      C1315   1.405       .  A
C1315      C1316   1.406       .  A
C1315     Br1322   1.933       .  S
C1316      C1317   1.422       .  A
C1316     Br1321   1.925       .  S
C1317      C1318   1.419       .  A
C1318     Br1319   1.922       .  S
C1323      C1324   1.419       .  A
C1323      C1328   1.406       .  A
C1323     Br1330   1.938       .  S
C1324      C1325   1.415       .  A
C1325      C1326   1.405       .  A
C1325     Br1332   1.913       .  S
C1326      C1327   1.407       .  A
C1326     Br1331   1.923       .  S
C1327      C1328   1.416       .  A
C1328     Br1329   1.927       .  S
C1333      C1334   1.417       .  A
C1333      C1338   1.406       .  A
C1333     Br1340   1.923       .  S
C1334      C1335   1.420       .  A
C1335      C1336   1.410       .  A
C1335     Br1342   1.927       .  S
C1336      C1337   1.410       .  A
C1336     Br1341   1.935       .  S
C1337      C1338   1.410       .  A
C1338     Br1339   1.937       .  S
C1343      C1344   1.421       .  A
C1343      C1348   1.416       .  A
C1343     Br1350   1.923       .  S
C1344      C1345   1.419       .  A
C1345      C1346   1.408       .  A
C1345     Br1352   1.925       .  S
C1346      C1347   1.408       .  A
C1346     Br1351   1.934       .  S
C1347      C1348   1.411       .  A
C1348     Br1349   1.930       .  S
C1353      C1354   1.409       .  A
C1353      C1358   1.418       .  A
C1353     Br1360   1.923       .  S
C1354      C1355   1.401       .  A
C1355      C1356   1.405       .  A
C1355     Br1362   1.918       .  S
C1356      C1357   1.431       .  A
C1356     Br1361   1.936       .  S
C1357      C1358   1.419       .  A
C1358     Br1359   1.926       .  S
C1363      C1364   1.419       .  A
C1363      C1368   1.407       .  A
C1363     Br1370   1.930       .  S
C1364      C1365   1.413       .  A
C1365      C1366   1.410       .  A
C1365     Br1372   1.925   1_655  S
C1366      C1367   1.410       .  A
C1366     Br1371   1.930       .  S
C1367      C1368   1.403       .  A
C1368     Br1369   1.921       .  S
C1373      C1374   1.417       .  A
C1373      C1378   1.407       .  A
C1373     Br1380   1.930       .  S
C1374      C1375   1.413       .  A
C1375      C1376   1.406       .  A
C1375     Br1382   1.923   1_455  S
C1376      C1377   1.406       .  A
C1376     Br1381   1.932       .  S
C1377      C1378   1.406       .  A
C1378     Br1379   1.929       .  S
C1383      C1384   1.409       .  A
C1383      C1388   1.413       .  A
C1383     Br1390   1.922       .  S
C1384      C1385   1.412       .  A
C1385      C1386   1.411       .  A
C1385     Br1392   1.915       .  S
C1386      C1387   1.413       .  A
C1386     Br1391   1.928       .  S
C1387      C1388   1.411       .  A
C1388     Br1389   1.924       .  S
C1393      C1394   1.419       .  A
C1393      C1398   1.404       .  A
C1393     Br1400   1.924       .  S
C1394      C1395   1.419       .  A
C1395      C1396   1.413       .  A
C1395     Br1402   1.924       .  S
C1396      C1397   1.408       .  A
C1396     Br1401   1.921       .  S
C1397      C1398   1.405       .  A
C1398     Br1399   1.933       .  S
C1403      C1404   1.412       .  A
C1403      C1408   1.404       .  A
C1403     Br1410   1.932       .  S
C1404      C1405   1.412       .  A
C1405      C1406   1.405       .  A
C1405     Br1412   1.920       .  S
C1406      C1407   1.415       .  A
C1406     Br1411   1.928       .  S
C1407      C1408   1.425       .  A
C1408     Br1409   1.942       .  S
C1413      C1414   1.420       .  A
C1413      C1418   1.412       .  A
C1413     Br1420   1.922       .  S
C1414      C1415   1.419       .  A
C1415      C1416   1.402       .  A
C1415     Br1422   1.925       .  S
C1416      C1417   1.405       .  A
C1416     Br1421   1.935       .  S
C1417      C1418   1.407       .  A
C1418     Br1419   1.931       .  S
C1423      C1424   1.415       .  A
C1423      C1428   1.403       .  A
C1423     Br1430   1.928       .  S
C1424      C1425   1.416       .  A
C1425      C1426   1.409       .  A
C1425     Br1432   1.920       .  S
C1426      C1427   1.414       .  A
C1426     Br1431   1.929       .  S
C1427      C1428   1.416       .  A
C1428     Br1429   1.938       .  S
C1433      C1434   1.412       .  A
C1433      C1438   1.415       .  A
C1433     Br1440   1.917       .  S
C1434      C1435   1.414       .  A
C1435      C1436   1.407       .  A
C1435     Br1442   1.917       .  S
C1436      C1437   1.410       .  A
C1436     Br1441   1.930       .  S
C1437      C1438   1.412       .  A
C1438     Br1439   1.927       .  S
C1443      C1444   1.409       .  A
C1443      C1448   1.400       .  A
C1443     Br1450   1.923       .  S
C1444      C1445   1.414       .  A
C1445      C1446   1.409       .  A
C1445     Br1452   1.931       .  S
C1446      C1447   1.414       .  A
C1446     Br1451   1.925       .  S
C1447      C1448   1.415       .  A
C1448     Br1449   1.939       .  S
C1453      C1454   1.409       .  A
C1453      C1458   1.405       .  A
C1453     Br1460   1.923       .  S
C1454      C1455   1.416       .  A
C1455      C1456   1.404       .  A
C1455     Br1462   1.926       .  S
C1456      C1457   1.413       .  A
C1456     Br1461   1.933       .  S
C1457      C1458   1.416       .  A
C1458     Br1459   1.936       .  S
C1463      C1464   1.400       .  A
C1463      C1468   1.409       .  A
C1463     Br1470   1.921       .  S
C1464      C1465   1.404       .  A
C1465      C1466   1.415       .  A
C1465     Br1472   1.922       .  S
C1466      C1467   1.423       .  A
C1466     Br1471   1.920       .  S
C1467      C1468   1.435       .  A
C1468     Br1469   1.937       .  S
C1473      C1474   1.415       .  A
C1473      C1478   1.407       .  A
C1473     Br1480   1.938       .  S
C1474      C1475   1.414       .  A
C1475      C1476   1.408       .  A
C1475     Br1482   1.924       .  S
C1476      C1477   1.413       .  A
C1476     Br1481   1.927       .  S
C1477      C1478   1.416       .  A
C1478     Br1479   1.928       .  S
C1483      C1484   1.423       .  A
C1483      C1488   1.393       .  A
C1483     Br1490   1.946       .  S
C1484      C1485   1.419       .  A
C1485      C1486   1.417       .  A
C1485     Br1492   1.928       .  S
C1486      C1487   1.417       .  A
C1486     Br1491   1.926       .  S
C1487      C1488   1.408       .  A
C1488     Br1489   1.927       .  S
C1493      C1494   1.409       .  A
C1493      C1498   1.405       .  A
C1493     Br1500   1.937       .  S
C1494      C1495   1.409       .  A
C1495      C1496   1.408       .  A
C1495     Br1502   1.924       .  S
C1496      C1497   1.418       .  A
C1496     Br1501   1.925       .  S
C1497      C1498   1.419       .  A
C1498     Br1499   1.925   1_554  S
C1503      C1504   1.401       .  A
C1503      C1508   1.401       .  A
C1503     Br1510   1.932       .  S
C1504      C1505   1.401       .  A
C1505      C1506   1.410       .  A
C1505     Br1512   1.923       .  S
C1506      C1507   1.424       .  A
C1506     Br1511   1.922       .  S
C1507      C1508   1.418       .  A
C1508     Br1509   1.922   1_556  S
C1513      C1514   1.419       .  A
C1513      C1518   1.411       .  A
C1513     Br1520   1.925       .  S
C1514      C1515   1.418       .  A
C1515      C1516   1.399       .  A
C1515     Br1522   1.924       .  S
C1516      C1517   1.405       .  A
C1516     Br1521   1.936       .  S
C1517      C1518   1.408       .  A
C1518     Br1519   1.929       .  S
C1523      C1524   1.417       .  A
C1523      C1528   1.402       .  A
C1523     Br1530   1.940       .  S
C1524      C1525   1.419       .  A
C1525      C1526   1.408       .  A
C1525     Br1532   1.925       .  S
C1526      C1527   1.411       .  A
C1526     Br1531   1.925       .  S
C1527      C1528   1.416       .  A
C1528     Br1529   1.927       .  S
C1533      C1534   1.422       .  A
C1533      C1538   1.408       .  A
C1533     Br1540   1.923       .  S
C1534      C1535   1.420       .  A
C1535      C1536   1.402       .  A
C1535     Br1542   1.922   1_554  S
C1536      C1537   1.401       .  A
C1536     Br1541   1.934       .  S
C1537      C1538   1.405       .  A
C1538     Br1539   1.932       .  S
C1543      C1544   1.425       .  A
C1543      C1548   1.411       .  A
C1543     Br1550   1.920       .  S
C1544      C1545   1.419       .  A
C1545      C1546   1.404       .  A
C1545     Br1552   1.924   1_556  S
C1546      C1547   1.405       .  A
C1546     Br1551   1.933       .  S
C1547      C1548   1.401       .  A
C1548     Br1549   1.922       .  S
C1553      C1554   1.417       .  A
C1553      C1558   1.407       .  A
C1553     Br1560   1.931       .  S
C1554      C1555   1.413       .  A
C1555      C1556   1.405       .  A
C1555     Br1562   1.920   1_545  S
C1556      C1557   1.407       .  A
C1556     Br1561   1.934       .  S
C1557      C1558   1.408       .  A
C1558     Br1559   1.930       .  S
C1563      C1564   1.409       .  A
C1563      C1568   1.420       .  A
C1563     Br1570   1.924       .  S
C1564      C1565   1.397       .  A
C1565      C1566   1.398       .  A
C1565     Br1572   1.919       .  S
C1566      C1567   1.432       .  A
C1566     Br1571   1.938       .  S
C1567      C1568   1.420       .  A
C1568     Br1569   1.918       .  S
C1573      C1574   1.396       .  A
C1573      C1578   1.406       .  A
C1573     Br1580   1.920       .  S
C1574      C1575   1.406       .  A
C1575      C1576   1.416       .  A
C1575     Br1582   1.922       .  S
C1576      C1577   1.421       .  A
C1576     Br1581   1.927       .  S
C1577      C1578   1.439       .  A
C1578     Br1579   1.939       .  S
C1583      C1584   1.405       .  A
C1583      C1588   1.405       .  A
C1583     Br1590   1.927       .  S
C1584      C1585   1.413       .  A
C1585      C1586   1.403       .  A
C1585     Br1592   1.925       .  S
C1586      C1587   1.414       .  A
C1586     Br1591   1.928       .  S
C1587      C1588   1.422       .  A
C1588     Br1589   1.934       .  S
C1593      C1594   1.411       .  A
C1593      C1598   1.424       .  A
C1593     Br1600   1.921       .  S
C1594      C1595   1.403       .  A
C1595      C1596   1.402       .  A
C1595     Br1602   1.920       .  S
C1596      C1597   1.431       .  A
C1596     Br1601   1.938       .  S
C1597      C1598   1.422       .  A
C1598     Br1599   1.918       .  S
C1603      C1604   1.412       .  A
C1603      C1608   1.412       .  A
C1603     Br1610   1.926       .  S
C1604      C1605   1.413       .  A
C1605      C1606   1.408       .  A
C1605     Br1612   1.932       .  S
C1606      C1607   1.415       .  A
C1606     Br1611   1.926       .  S
C1607      C1608   1.416       .  A
C1608     Br1609   1.934       .  S
C1613      C1614   1.417       .  A
C1613      C1618   1.404       .  A
C1613     Br1620   1.936       .  S
C1614      C1615   1.416       .  A
C1615      C1616   1.407       .  A
C1615     Br1622   1.930       .  S
C1616      C1617   1.415       .  A
C1616     Br1621   1.929       .  S
C1617      C1618   1.408       .  A
C1618     Br1619   1.920       .  S
C1623      C1624   1.402       .  A
C1623      C1628   1.413       .  A
C1623     Br1630   1.921       .  S
C1624      C1625   1.404       .  A
C1625      C1626   1.417       .  A
C1625     Br1632   1.922       .  S
C1626      C1627   1.422       .  A
C1626     Br1631   1.914       .  S
C1627      C1628   1.438       .  A
C1628     Br1629   1.937       .  S
C1633      C1634   1.411       .  A
C1633      C1638   1.408       .  A
C1633     Br1640   1.936       .  S
C1634      C1635   1.412       .  A
C1635      C1636   1.406       .  A
C1635     Br1642   1.911       .  S
C1636      C1637   1.410       .  A
C1636     Br1641   1.927       .  S
C1637      C1638   1.420       .  A
C1638     Br1639   1.925       .  S
C1643      C1644   1.415       .  A
C1643      C1648   1.405       .  A
C1643     Br1650   1.928       .  S
C1644      C1645   1.413       .  A
C1645      C1646   1.416       .  A
C1645     Br1652   1.924       .  S
C1646      C1647   1.423       .  A
C1646     Br1651   1.934       .  S
C1647      C1648   1.422       .  A
C1648     Br1649   1.942       .  S
C1653      C1654   1.421       .  A
C1653      C1658   1.412       .  A
C1653     Br1660   1.922       .  S
C1654      C1655   1.422       .  A
C1655      C1656   1.406       .  A
C1655     Br1662   1.924   1_545  S
C1656      C1657   1.404       .  A
C1656     Br1661   1.935       .  S
C1657      C1658   1.408       .  A
C1658     Br1659   1.932       .  S
C1663      C1664   1.406       .  A
C1663      C1668   1.410       .  A
C1663     Br1670   1.930       .  S
C1664      C1665   1.405       .  A
C1665      C1666   1.404       .  A
C1665     Br1672   1.933       .  S
C1666      C1667   1.418       .  A
C1666     Br1671   1.924       .  S
C1667      C1668   1.419       .  A
C1668     Br1669   1.920       .  S
C1673      C1674   1.401       .  A
C1673      C1678   1.411       .  A
C1673     Br1680   1.937       .  S
C1674      C1675   1.403       .  A
C1675      C1676   1.408       .  A
C1675     Br1682   1.936       .  S
C1676      C1677   1.428       .  A
C1676     Br1681   1.928   1_455  S
C1677      C1678   1.430       .  A
C1678     Br1679   1.917       .  S
C1683      C1684   1.403       .  A
C1683      C1688   1.395       .  A
C1683     Br1690   1.930       .  S
C1684      C1685   1.417       .  A
C1685      C1686   1.422       .  A
C1685     Br1692   1.928       .  S
C1686      C1687   1.420       .  A
C1686     Br1691   1.926       .  S
C1687      C1688   1.429       .  A
C1688     Br1689   1.947       .  S
C1693      C1694   1.420       .  A
C1693      C1698   1.409       .  A
C1693     Br1700   1.933       .  S
C1694      C1695   1.413       .  A
C1695      C1696   1.403       .  A
C1695     Br1702   1.934       .  S
C1696      C1697   1.416       .  A
C1696     Br1701   1.934       .  S
C1697      C1698   1.413       .  A
C1698     Br1699   1.921       .  S
C1703      C1704   1.417       .  A
C1703      C1708   1.380       .  A
C1703     Br1710   1.926   1_655  S
C1704      C1705   1.430       .  A
C1705      C1706   1.426       .  A
C1705     Br1712   1.917       .  S
C1706      C1707   1.416       .  A
C1706     Br1711   1.925       .  S
C1707      C1708   1.400       .  A
C1708     Br1709   1.928       .  S
