geometry optimzed in LAMMPS
_audit_creation_date              2020-12-01 
_audit_creation_method            'lammps2cif' 
_symmetry_space_group_name_H-M    'P1' 
_symmetry_Int_Tables_number       1 
_symmetry_cell_setting            triclinic 
loop_ 
_symmetry_equiv_pos_as_xyz 
  x,y,z 
_cell_length_a                    44.96331858 
_cell_length_b                    44.33383216392015 
_cell_length_c                    46.364020075932515 
_cell_angle_alpha                 90.00897529158199 
_cell_angle_beta                  90.00289047962538 
_cell_angle_gamma                 89.69647463537426 
loop_ 
_atom_site_label 
_atom_site_type_symbol 
_atom_site_fract_x 
_atom_site_fract_y 
_atom_site_fract_z 
_atom_site_charge 
O1          O  0.23182078  0.27126141  0.17894043    -0.77900
O2          O  0.27292082  0.29186591  0.28562165    -0.77900
O3          O  0.21427814  0.29135105  0.28305718    -0.78000
O4          O  0.31433437  0.26627284  0.22199257    -0.77900
O5          O  0.23160840  0.27120284  0.32378721    -0.78000
O6          O  0.27294072  0.29184927  0.21731263    -0.77900
O7          O  0.31426950  0.26620438  0.28103287    -0.77900
O8          O  0.21432441  0.29149874  0.21957411    -0.78000
C9          C  0.21441225  0.28962749  0.19166665     1.11800
C10         C  0.30061472  0.28966857  0.28943587     1.11600
C11         C  0.21411519  0.28940357  0.31095105     1.11800
C12         C  0.30064659  0.28969956  0.21355634     1.11700
O13         O  0.28303346  0.23464798  0.18807905    -0.77900
O14         O  0.23172549  0.21493564  0.29999999    -0.78000
O15         O  0.19149542  0.23055974  0.22260811    -0.77900
O16         O  0.29757498  0.20333374  0.28083182    -0.77900
O17         O  0.28288565  0.23453218  0.31476417    -0.78000
O18         O  0.23176382  0.21489026  0.20264149    -0.77900
O19         O  0.29771859  0.20339661  0.22195545    -0.77900
O20         O  0.19151685  0.23035444  0.27969857    -0.78000
Co21       Co  0.25044836  0.25374581  0.21182331     1.51500
Co22       Co  0.25040214  0.25375752  0.29094965     1.51700
Co23       Co  0.20933917  0.25898321  0.25125677     1.51600
Co24       Co  0.30245423  0.23506352  0.25144825     1.51500
O25         O  0.25640743  0.24092315  0.25137333    -1.39900
C26         C  0.29628691  0.21056702  0.19569031     1.11700
C27         C  0.20449036  0.21231330  0.29629380     1.11800
C28         C  0.20446495  0.21243864  0.20608754     1.11700
C29         C  0.29609711  0.21043228  0.30711122     1.11700
C30         C  0.34812143  0.34276202  0.34604108     0.88700
C31         C  0.37038500  0.36481776  0.33250181    -0.51500
C32         C  0.38682838  0.38009197  0.35238500     0.11600
C33         C  0.37973828  0.37199514  0.38378403     0.22600
C34         C  0.36706750  0.32212288  0.36573618    -0.52300
C35         C  0.38353815  0.33767177  0.38556460     0.11700
C36         C  0.32939452  0.36213047  0.36695051    -0.51800
C37         C  0.34619128  0.37732312  0.38672056     0.12300
H38         H  0.37268468  0.36827677  0.30941219     0.16800
H39         H  0.39322772  0.38459552  0.39983737     0.02600
H40         H  0.36722916  0.29767149  0.36426694     0.17100
H41         H  0.30529599  0.36372831  0.36613128     0.16900
C42         C  0.34706966  0.15697432  0.35965998     0.88700
C43         C  0.33118198  0.13476667  0.37972238    -0.51500
C44         C  0.35029150  0.11758610  0.39565212     0.11600
C45         C  0.38331014  0.12442465  0.39046019     0.22600
C46         C  0.36735522  0.17567586  0.37922323    -0.52300
C47         C  0.38643953  0.15858426  0.39519552     0.11700
C48         C  0.36832987  0.13727341  0.34146862    -0.51800
C49         C  0.38722298  0.12018343  0.35789149     0.12300
H50         H  0.30718133  0.13216922  0.38054788     0.16800
H51         H  0.39878609  0.11046561  0.40365201     0.02600
H52         H  0.36712075  0.20017949  0.37989436     0.17100
H53         H  0.36810186  0.13653748  0.31805229     0.16900
C54         C  0.15491117  0.34157194  0.35714389     0.88700
C55         C  0.16999358  0.36345921  0.37811811    -0.51500
C56         C  0.15033020  0.38067812  0.39329901     0.11600
C57         C  0.11760625  0.37432657  0.38656888     0.22600
C58         C  0.13340993  0.32291147  0.37579790    -0.52300
C59         C  0.11379554  0.34027434  0.39113366     0.11700
C60         C  0.13476312  0.36163669  0.33820661    -0.51800
C61         C  0.11533804  0.37881042  0.35391739     0.12300
H62         H  0.19395171  0.36582029  0.38008566     0.16800
H63         H  0.10175962  0.38848894  0.39914942     0.02600
H64         H  0.13361429  0.29842671  0.37668559     0.17100
H65         H  0.13625522  0.36273652  0.31484750     0.16900
C66         C  0.15596028  0.15785395  0.34969920     0.88700
C67         C  0.13393738  0.13609061  0.33544551    -0.51500
C68         C  0.11738097  0.12040442  0.35490479     0.11600
C69         C  0.12408069  0.12790739  0.38649073     0.22600
C70         C  0.13689936  0.17809592  0.36944452    -0.52300
C71         C  0.12025035  0.16221125  0.38872224     0.11700
C72         C  0.17457263  0.13810804  0.37028189    -0.51800
C73         C  0.15760013  0.12245677  0.38950087     0.12300
H74         H  0.13196326  0.13302713  0.31227457     0.16800
H75         H  0.11042365  0.11499499  0.40217154     0.02600
H76         H  0.13657672  0.20257006  0.36825020     0.17100
H77         H  0.19866155  0.13631785  0.36943579     0.16900
N78         N  0.00242029  0.45426786  0.33571784    -0.34400
N79         N  0.04861371  0.00005028  0.33508212    -0.55000
N80         N  0.00238760  0.04638056  0.33807693    -0.34400
N81         N  0.45620827  0.00060733  0.33561571    -0.55000
C82         C  0.02652934  0.43690786  0.32993891     0.29200
C83         C  0.47804705  0.43709041  0.33141131     0.29200
C84         C  0.02670698  0.06373907  0.33424871     0.29200
C85         C  0.47820034  0.06406587  0.33359613     0.29200
C86         C  0.06597748  0.47532438  0.33847482     0.37800
C87         C  0.06591371  0.02416904  0.34073164     0.37800
C88         C  0.43902597  0.47619848  0.34053201     0.37800
C89         C  0.43892030  0.02512322  0.34054146     0.37800
C90         C  0.01733944  0.40827475  0.32191130    -0.19700
C91         C  0.48676532  0.40837590  0.32289307    -0.19700
C92         C  0.01787774  0.09292852  0.32745288    -0.19700
C93         C  0.48729058  0.09312261  0.32700384    -0.19700
C94         C  0.09468816  0.48380207  0.34569728    -0.20700
C95         C  0.09464261  0.01476439  0.34716260    -0.20700
C96         C  0.41046799  0.48525674  0.34798745    -0.20700
C97         C  0.41038750  0.01624611  0.34794429    -0.20700
C98         C  0.05649650  0.44530019  0.33425426    -0.16100
C99         C  0.44836933  0.44590033  0.33716804    -0.16100
C100        C  0.44827290  0.05537967  0.33768172    -0.16100
C101        C  0.05649741  0.05456179  0.33881714    -0.16100
H102        H  0.03124162  0.38908111  0.31651410     0.16800
H103        H  0.47258480  0.38930809  0.31832922     0.16800
H104        H  0.03199542  0.11222410  0.32364295     0.16800
H105        H  0.47333192  0.11260692  0.32284157     0.16800
H106        H  0.11367713  0.46923227  0.34952132     0.15100
H107        H  0.11361040  0.02872769  0.35225878     0.15100
H108        H  0.39163153  0.47104834  0.35290491     0.15100
H109        H  0.39150332  0.03057465  0.35291006     0.15100
H110        H  0.00264571  0.47514838  0.34578992     0.28400
H111        H  0.00231190  0.02490066  0.34691080     0.28400
C112        C  0.34801230  0.34265022  0.15676986     0.88700
C113        C  0.32924016  0.36208454  0.13594769    -0.51500
C114        C  0.34599907  0.37721185  0.11610273     0.11600
C115        C  0.37952958  0.37175275  0.11887822     0.22600
C116        C  0.36678942  0.32193796  0.13698640    -0.52300
C117        C  0.38321128  0.33742750  0.11708632     0.11700
C118        C  0.37042686  0.36463097  0.17020343    -0.51800
C119        C  0.38680951  0.37983309  0.15022778     0.12300
H120        H  0.30515224  0.36377781  0.13688454     0.16800
H121        H  0.39298428  0.38430107  0.10276374     0.02600
H122        H  0.36691255  0.29748865  0.13847838     0.17100
H123        H  0.37286634  0.36809283  0.19328030     0.16900
C124        C  0.15560752  0.34215266  0.14533275     0.88700
C125        C  0.13572789  0.36233790  0.16443185    -0.51500
C126        C  0.11615705  0.37950841  0.14889233     0.11600
C127        C  0.11806529  0.37494833  0.11623130     0.22600
C128        C  0.13381523  0.32352433  0.12692588    -0.52300
C129        C  0.11405751  0.34091350  0.11177244     0.11700
C130        C  0.17053165  0.36391791  0.12414920    -0.51800
C131        C  0.15073500  0.38113805  0.10913402     0.12300
H132        H  0.13740154  0.36340474  0.18778090     0.16800
H133        H  0.10212768  0.38913714  0.10378790     0.02600
H134        H  0.13391517  0.29903887  0.12609642     0.17100
H135        H  0.19447428  0.36615230  0.12187461     0.16900
N136        N  0.04162232  0.31208655  0.00167666    -0.34400
N137        N  0.99556514  0.31066727  0.04596963    -0.55000
N138        N  0.44936557  0.30710016  0.00141181    -0.34400
N139        N  0.99569214  0.31090128  0.45713506    -0.55000
C140        C  0.05809096  0.31896376  0.02524838     0.29200
C141        C  0.05818940  0.31881596  0.47814252     0.29200
C142        C  0.43248200  0.31312555  0.02501344     0.29200
C143        C  0.43256963  0.31329819  0.47777482     0.29200
C144        C  0.01979517  0.30959950  0.06331265     0.37800
C145        C  0.47153964  0.30698135  0.06316130     0.37800
C146        C  0.02001104  0.30947290  0.43994974     0.37800
C147        C  0.47175536  0.30718453  0.43982157     0.37800
C148        C  0.08572429  0.32937769  0.01652546    -0.19700
C149        C  0.08580863  0.32921831  0.48691592    -0.19700
C150        C  0.40432479  0.32221734  0.01620469    -0.19700
C151        C  0.40438972  0.32237059  0.48651084    -0.19700
C152        C  0.01111431  0.30497921  0.09164469    -0.20700
C153        C  0.48061623  0.30328785  0.09155596    -0.20700
C154        C  0.01147728  0.30464461  0.41160063    -0.20700
C155        C  0.48096675  0.30318685  0.41151200    -0.20700
C156        C  0.04930233  0.31567774  0.05443845    -0.16100
C157        C  0.04950100  0.31537922  0.44894415    -0.16100
C158        C  0.44177904  0.31089256  0.44853512    -0.16100
C159        C  0.44158735  0.31062414  0.05428446    -0.16100
H160        H  0.10400204  0.33650590  0.03005694     0.16800
H161        H  0.10414727  0.33624002  0.47341415     0.18800
H162        H  0.38571322  0.32857152  0.02975348     0.16800
H163        H  0.38584440  0.32882301  0.47291790     0.16800
H164        H  0.02522707  0.30383118  0.11053062     0.15100
H165        H  0.46666190  0.30065545  0.11040314     0.15100
H166        H  0.02570346  0.30315855  0.39281614     0.15100
H167        H  0.46710776  0.30040537  0.39261687     0.15100
H168        H  0.02128411  0.30117514  0.00163670     0.28400
H169        H  0.47040959  0.29735905  0.00143837     0.28400
C170        C  0.15537723  0.15824247  0.15268175     0.88700
C171        C  0.17371906  0.13819058  0.13210346    -0.51500
C172        C  0.15651267  0.12257573  0.11302889     0.11600
C173        C  0.12308192  0.12835763  0.11615496     0.22600
C174        C  0.13640797  0.17853410  0.13289286    -0.52300
C175        C  0.11956361  0.16266780  0.11375021     0.11700
C176        C  0.13321459  0.13673416  0.16711750    -0.51800
C177        C  0.11646684  0.12105840  0.14778571     0.12300
H178        H  0.19779477  0.13618920  0.13284829     0.16800
H179        H  0.10925367  0.11548046  0.10058194     0.02600
H180        H  0.13635275  0.20301838  0.13390375     0.17100
H181        H  0.13139355  0.13371616  0.19030374     0.16900
N182        N  0.00258620  0.45413422  0.16590338    -0.34400
N183        N  0.45624950  0.00032756  0.16537282    -0.55000
N184        N  0.00212908  0.04620113  0.16355613    -0.34400
N185        N  0.04849049  0.00008739  0.16700415    -0.55000
C186        C  0.47822065  0.43698964  0.17036963     0.29200
C187        C  0.02668884  0.43698395  0.17230097     0.29200
C188        C  0.47785848  0.06366853  0.16841032     0.29200
C189        C  0.02634002  0.06351258  0.16816319     0.29200
C190        C  0.43915548  0.47585579  0.16054829     0.37800
C191        C  0.43883059  0.02476734  0.16056925     0.37800
C192        C  0.06600131  0.47544749  0.16373304     0.37800
C193        C  0.06570112  0.02427307  0.16137824     0.37800
C194        C  0.48693797  0.40851548  0.17958927    -0.19700
C195        C  0.01751002  0.40852424  0.18084996    -0.19700
C196        C  0.48678687  0.09249362  0.17604005    -0.19700
C197        C  0.01736773  0.09240856  0.17584269    -0.19700
C198        C  0.41053403  0.48479578  0.15316164    -0.20700
C199        C  0.41031317  0.01578595  0.15323952    -0.20700
C200        C  0.09469420  0.48404454  0.15658276    -0.20700
C201        C  0.09449100  0.01500435  0.15505026    -0.20700
C202        C  0.44854896  0.44563817  0.16434770    -0.16100
C203        C  0.05666838  0.44542495  0.16817589    -0.16100
C204        C  0.05617049  0.05459939  0.16351915    -0.16100
C205        C  0.44800374  0.05501223  0.16389055    -0.16100
H206        H  0.47275723  0.38954769  0.18451384     0.16800
H207        H  0.03142319  0.38953857  0.18685197     0.16800
H208        H  0.47272170  0.11175139  0.18078770     0.16800
H209        H  0.03140146  0.11157614  0.18045876     0.16800
H210        H  0.39169670  0.47050488  0.14846714     0.15100
H211        H  0.39131553  0.03004947  0.14851791     0.15100
H212        H  0.11378196  0.46955789  0.15293878     0.15100
H213        H  0.11341851  0.02906659  0.15008318     0.15100
H214        H  0.00284509  0.47480780  0.15546218     0.28400
H215        H  0.00223023  0.02504312  0.15402241     0.28400
N216        N  0.17109067  0.45793803  0.00088984    -0.34400
N217        N  0.17533293  0.00340477  0.45625908    -0.55000
N218        N  0.17618806  0.04929320  0.00113697    -0.34400
N219        N  0.17416512  0.00349457  0.04576072    -0.55000
C220        C  0.17582077  0.44042567  0.47747010     0.29200
C221        C  0.17562353  0.44048485  0.02437426     0.29200
C222        C  0.18315487  0.06600281  0.47772370     0.29200
C223        C  0.18239226  0.06603536  0.02476331     0.29200
C224        C  0.16819947  0.47943252  0.43969013     0.37800
C225        C  0.17129637  0.02817666  0.43974960     0.37800
C226        C  0.16659843  0.47943223  0.06197748     0.37800
C227        C  0.16917641  0.02818481  0.06214871     0.37800
C228        C  0.18359200  0.41148848  0.48614531    -0.19700
C229        C  0.18348241  0.41153097  0.01578966    -0.19700
C230        C  0.19402655  0.09373486  0.48656459    -0.19700
C231        C  0.19354278  0.09376156  0.01627599    -0.19700
C232        C  0.16019810  0.48892199  0.41226309    -0.20700
C233        C  0.16216173  0.01986315  0.41229010    -0.20700
C234        C  0.15721926  0.48878886  0.08904449    -0.20700
C235        C  0.15883370  0.01974959  0.08915259    -0.20700
C236        C  0.17025053  0.44911248  0.44873145    -0.16100
C237        C  0.16961181  0.44916505  0.05304308    -0.16100
C238        C  0.17543581  0.05799727  0.05346563    -0.16100
C239        C  0.17709432  0.05798811  0.44881721    -0.16100
H240        H  0.18807764  0.39215375  0.47253275     0.16800
H241        H  0.18783799  0.39221106  0.02945389     0.16800
H242        H  0.20090395  0.11230185  0.47300028     0.16800
H243        H  0.19996983  0.11233621  0.03004704     0.16800
H244        H  0.15375040  0.47502561  0.39413430     0.15100
H245        H  0.15749561  0.03451948  0.39415708     0.15100
H246        H  0.15010852  0.47478424  0.10685192     0.15100
H247        H  0.15321040  0.03433957  0.10708379     0.15100
H248        H  0.16103642  0.47906580  0.00082942     0.28400
H249        H  0.16391801  0.02953141  0.00092611     0.28400
N250        N  0.00524466  0.19426615  0.04571201    -0.34400
N251        N  0.45995507  0.19442435  0.00084429    -0.55000
N252        N  0.00544312  0.19515931  0.45595950    -0.34400
N253        N  0.05103013  0.19297331  0.00090022    -0.55000
C254        C  0.48094373  0.18688691  0.06147115     0.29200
C255        C  0.02947455  0.18727274  0.06176686     0.29200
C256        C  0.48114124  0.18834314  0.43997675     0.29200
C257        C  0.02968228  0.18845072  0.43979209     0.29200
C258        C  0.44208489  0.19661115  0.02416388     0.37800
C259        C  0.44219226  0.19708656  0.47749902     0.37800
C260        C  0.06883039  0.19493795  0.02435870     0.37800
C261        C  0.06893161  0.19505222  0.47752680     0.37800
C262        C  0.48986345  0.17618405  0.08823760    -0.19700
C263        C  0.02041341  0.17651154  0.08846614    -0.19700
C264        C  0.49006602  0.17850699  0.41290535    -0.19700
C265        C  0.02061773  0.17864880  0.41275352    -0.19700
C266        C  0.41290351  0.20149892  0.01560588    -0.20700
C267        C  0.41296685  0.20178066  0.48603509    -0.20700
C268        C  0.09817377  0.19841758  0.01582202    -0.20700
C269        C  0.09823731  0.19847357  0.48620417    -0.20700
C270        C  0.45092989  0.18960506  0.05255704    -0.16100
C271        C  0.05954467  0.19023620  0.05316104    -0.16100
C272        C  0.05975735  0.19064027  0.44864669    -0.16100
C273        C  0.45112508  0.19057545  0.44902226    -0.16100
H274        H  0.47584367  0.16861173  0.10575042     0.16800
H275        H  0.03434157  0.16910227  0.10616930     0.16800
H276        H  0.47604433  0.17154632  0.39515750     0.16800
H277        H  0.03454084  0.17169871  0.39487808     0.16800
H278        H  0.39340914  0.20320740  0.02921988     0.15100
H279        H  0.39352992  0.20375515  0.47237288     0.15100
H280        H  0.11762667  0.19982611  0.02950192     0.15100
H281        H  0.11774724  0.19996287  0.47261101     0.15100
H282        H  0.00534222  0.20530742  0.02597257     0.28400
H283        H  0.00551414  0.20543003  0.47607040     0.28400
C284        C  0.34713835  0.15722805  0.14283628     0.88700
C285        C  0.36836611  0.13740355  0.16095003    -0.51500
C286        C  0.38707919  0.12017992  0.14445445     0.11600
C287        C  0.38304382  0.12442627  0.11191283     0.22600
C288        C  0.36745007  0.17578717  0.12314772    -0.52300
C289        C  0.38634415  0.15854168  0.10708574     0.11700
C290        C  0.33102759  0.13508523  0.12285754    -0.51800
C291        C  0.34998531  0.11777039  0.10688656     0.12300
H292        H  0.36820907  0.13665235  0.18436617     0.16800
H293        H  0.39836451  0.11034505  0.09866567     0.02600
H294        H  0.36731629  0.20028731  0.12240414     0.17100
H295        H  0.30701135  0.13258680  0.12215992     0.16900
N296        N  0.32652384  0.03916889  0.00135590    -0.34400
N297        N  0.32419456  0.49367562  0.45645419    -0.55000
N298        N  0.32514231  0.44748629  0.00137334    -0.34400
N299        N  0.32483900  0.49360960  0.04624454    -0.55000
C300        C  0.32122594  0.05650024  0.47793853     0.29200
C301        C  0.32138846  0.05647477  0.02482584     0.29200
C302        C  0.32004723  0.43025519  0.47779020     0.29200
C303        C  0.32033096  0.43018704  0.02499201     0.29200
C304        C  0.33071327  0.01801480  0.44009192     0.37800
C305        C  0.32946123  0.46914347  0.43989358     0.37800
C306        C  0.33128878  0.01797193  0.06259813     0.37800
C307        C  0.32998934  0.46909255  0.06284303     0.37800
C308        C  0.31223702  0.08508064  0.48659548    -0.19700
C309        C  0.31237271  0.08507697  0.01624386    -0.19700
C310        C  0.31180209  0.40156477  0.48653858    -0.19700
C311        C  0.31217982  0.40145096  0.01628318    -0.19700
C312        C  0.33940691  0.00899227  0.41273297    -0.20700
C313        C  0.33862154  0.47800971  0.41259085    -0.20700
C314        C  0.33999559  0.00897380  0.08996427    -0.20700
C315        C  0.33903719  0.47798186  0.09017969    -0.20700
C316        C  0.32783280  0.04823616  0.44930579    -0.16100
C317        C  0.32809786  0.04817601  0.05343456    -0.16100
C318        C  0.32564965  0.43890028  0.05397502    -0.16100
C319        C  0.32528972  0.43893979  0.44879947    -0.16100
H320        H  0.30710289  0.10423099  0.47296134     0.16800
H321        H  0.30732489  0.10422098  0.02992118     0.16800
H322        H  0.30686445  0.38241471  0.47290257     0.16800
H323        H  0.30745882  0.38226216  0.02993689     0.16800
H324        H  0.34572432  0.02321833  0.39479947     0.15100
H325        H  0.34429154  0.46367714  0.39448338     0.15100
H326        H  0.34619605  0.02322320  0.10792388     0.15100
H327        H  0.34454289  0.46366596  0.10834284     0.15100
H328        H  0.33761203  0.01858323  0.00130171     0.28400
H329        H  0.33505185  0.46852046  0.00132027     0.28400
C330        C  0.34009444  0.09323583  0.08903186    -0.11100
C331        C  0.33355116  0.07228787  0.07378339    -0.12600
C332        C  0.40862918  0.17137328  0.08844068    -0.11100
C333        C  0.42779136  0.18094173  0.07273149    -0.12600
C334        C  0.42579700  0.07874622  0.16116945    -0.11100
C335        C  0.40786384  0.09830953  0.15579841    -0.12600
C336        C  0.09995510  0.17642538  0.09285129    -0.11100
C337        C  0.08227448  0.18448603  0.07479110    -0.12600
C338        C  0.16788133  0.10107124  0.09245796    -0.11100
C339        C  0.17314508  0.08179911  0.07479955    -0.12600
C340        C  0.07809073  0.07817508  0.16038776    -0.11100
C341        C  0.09564290  0.09806508  0.15592535    -0.12600
C342        C  0.07169096  0.32148488  0.07651451    -0.11100
C343        C  0.09105281  0.32884057  0.09322414    -0.12600
C344        C  0.15956817  0.40499734  0.09007823    -0.11100
C345        C  0.16508384  0.42544813  0.07392592    -0.12600
C346        C  0.07876247  0.42154838  0.16645927    -0.11100
C347        C  0.09635215  0.40170322  0.16111699    -0.12600
C348        C  0.41942565  0.31582482  0.07678633    -0.11100
C349        C  0.40229892  0.32349747  0.09561853    -0.12600
C350        C  0.33407729  0.39727369  0.09439466    -0.11100
C351        C  0.32840350  0.41546713  0.07576022    -0.12600
C352        C  0.42654768  0.42199300  0.16162225    -0.11100
C353        C  0.40843700  0.40246367  0.15757625    -0.12600
C354        C  0.07857169  0.07794113  0.34224108    -0.11100
C355        C  0.09635410  0.09757661  0.34685507    -0.12600
C356        C  0.17487790  0.08191794  0.42764183    -0.11100
C357        C  0.16932596  0.10116320  0.41005924    -0.12600
C358        C  0.10039628  0.17600536  0.40940232    -0.11100
C359        C  0.08256993  0.18440177  0.42720064    -0.12600
C360        C  0.07195368  0.32091023  0.42691071    -0.11100
C361        C  0.09114181  0.32816371  0.41000655    -0.12600
C362        C  0.07841631  0.42131108  0.33639425    -0.11100
C363        C  0.09571061  0.40124514  0.34185256    -0.12600
C364        C  0.16526541  0.42536823  0.42792827    -0.11100
C365        C  0.15936566  0.40478030  0.41203255    -0.12600
C366        C  0.34048558  0.09315511  0.41371250    -0.11100
C367        C  0.33367096  0.07234050  0.42903012    -0.12600
C368        C  0.42613253  0.07911979  0.34075471    -0.11100
C369        C  0.40814888  0.09854096  0.34640799    -0.12600
C370        C  0.40885842  0.17168189  0.41348709    -0.11100
C371        C  0.42805805  0.18163383  0.42891391    -0.12600
C372        C  0.33423440  0.39730890  0.40848237    -0.11100
C373        C  0.32832809  0.41546888  0.42708413    -0.12600
C374        C  0.41972576  0.31612265  0.42593028    -0.11100
C375        C  0.40265530  0.32378564  0.40704156    -0.12600
C376        C  0.42636913  0.42230814  0.34040775    -0.11100
C377        C  0.40834258  0.40278244  0.34484674    -0.12600
C378        C  0.31622235  0.31133782  0.30715191    -0.11100
C379        C  0.33025824  0.32627593  0.32432117    -0.12600
C380        C  0.32663456  0.17569480  0.34255419    -0.11100
C381        C  0.31125673  0.19174847  0.32769873    -0.12600
C382        C  0.17659550  0.32345431  0.34069776    -0.11100
C383        C  0.19461917  0.30867378  0.32739023    -0.12600
C384        C  0.31622576  0.31134581  0.19581161    -0.11100
C385        C  0.33021613  0.32623295  0.17857699    -0.12600
C386        C  0.18793325  0.19071422  0.31274050    -0.11100
C387        C  0.17377383  0.17493791  0.32882804    -0.12600
C388        C  0.19523790  0.30910594  0.17507737    -0.11100
C389        C  0.17736376  0.32398621  0.16166908    -0.12600
C390        C  0.31151860  0.19199433  0.17504705    -0.11100
C391        C  0.32685929  0.17602943  0.16005798    -0.12600
C392        C  0.18783186  0.19096789  0.18947481    -0.11100
C393        C  0.17347154  0.17529349  0.17341922    -0.12600
O394        O  0.23180572  0.27124628  0.67893018    -0.77900
O395        O  0.27293538  0.29186931  0.78560134    -0.77900
O396        O  0.21428182  0.29135646  0.78304666    -0.78000
O397        O  0.31432559  0.26627936  0.72196833    -0.77900
O398        O  0.23162494  0.27121982  0.82377687    -0.78000
O399        O  0.27292661  0.29184814  0.71729371    -0.77900
O400        O  0.31427963  0.26620142  0.78100851    -0.77900
O401        O  0.21432004  0.29149335  0.71956361    -0.78000
C402        C  0.21440240  0.28961671  0.69165675     1.11800
C403        C  0.30062975  0.28966756  0.78941219     1.11600
C404        C  0.21412540  0.28941522  0.81094127     1.11800
C405        C  0.30063212  0.28970409  0.71353397     1.11700
O406        O  0.28302543  0.23464972  0.68806096    -0.77900
O407        O  0.23172873  0.21494766  0.80000063    -0.78000
O408        O  0.19149573  0.23055417  0.72260520    -0.77900
O409        O  0.29758420  0.20333462  0.78081159    -0.77900
O410        O  0.28289630  0.23453347  0.81474605    -0.78000
O411        O  0.23176352  0.21487950  0.70264075    -0.77900
O412        O  0.29771349  0.20339868  0.72193471    -0.77900
O413        O  0.19151921  0.23035837  0.77969559    -0.78000
Co414      Co  0.25044153  0.25373942  0.71181231     1.51500
Co415      Co  0.25041074  0.25376551  0.79093857     1.51700
Co416      Co  0.20933984  0.25898286  0.75125004     1.51600
Co417      Co  0.30245553  0.23506502  0.75142615     1.51500
O418        O  0.25640845  0.24092362  0.75136331    -1.39900
C419        C  0.29628355  0.21057133  0.69567051     1.11700
C420        C  0.20449360  0.21232199  0.79629443     1.11800
C421        C  0.20446481  0.21242986  0.70608702     1.11700
C422        C  0.29610377  0.21043119  0.80709192     1.11700
C423        C  0.34814179  0.34274494  0.84602570     0.88700
C424        C  0.37040750  0.36480441  0.83249578    -0.51500
C425        C  0.38684185  0.38007811  0.85238633     0.11600
C426        C  0.37974347  0.37197583  0.88378203     0.22600
C427        C  0.36708391  0.32210448  0.86572374    -0.52300
C428        C  0.38354719  0.33765223  0.88555931     0.11700
C429        C  0.32940668  0.36210954  0.86693150    -0.51800
C430        C  0.34619523  0.37730179  0.88670828     0.12300
H431        H  0.37271243  0.36826907  0.80940739     0.16800
H432        H  0.39322647  0.38457595  0.89984061     0.02600
H433        H  0.36724964  0.29765341  0.86424997     0.17100
H434        H  0.30530852  0.36370806  0.86610268     0.16900
C435        C  0.34706879  0.15697436  0.85965062     0.88700
C436        C  0.33118887  0.13477032  0.87972346    -0.51500
C437        C  0.35030432  0.11759437  0.89565196     0.11600
C438        C  0.38332097  0.12443609  0.89044956     0.22600
C439        C  0.36735889  0.17568314  0.87920391    -0.52300
C440        C  0.38644865  0.15859773  0.89517674     0.11700
C441        C  0.36832469  0.13727002  0.84145884    -0.51800
C442        C  0.38722426  0.12018682  0.85788049     0.12300
H443        H  0.30718889  0.13216909  0.88055404     0.16800
H444        H  0.39880215  0.11048169  0.90364005     0.02600
H445        H  0.36712047  0.20018685  0.87987071     0.17100
H446        H  0.36808878  0.13652634  0.81804274     0.16900
C447        C  0.15491597  0.34157645  0.85714309     0.88700
C448        C  0.16999723  0.36346940  0.87811324    -0.51500
C449        C  0.15033312  0.38068461  0.89329750     0.11600
C450        C  0.11760928  0.37432425  0.88657430     0.22600
C451        C  0.13342237  0.32291209  0.87580285    -0.52300
C452        C  0.11380645  0.34027142  0.89114119     0.11700
C453        C  0.13475848  0.36163563  0.83820922    -0.51800
C454        C  0.11533292  0.37880593  0.85392331     0.12300
H455        H  0.19395515  0.36583704  0.88007537     0.16800
H456        H  0.10176196  0.38848367  0.89915710     0.02600
H457        H  0.13363094  0.29842735  0.87669008     0.17100
H458        H  0.13624573  0.36273545  0.81484983     0.16900
C459        C  0.15595898  0.15785343  0.84969121     0.88700
C460        C  0.13393717  0.13608886  0.83543599    -0.51500
C461        C  0.11738122  0.12040024  0.85489470     0.11600
C462        C  0.12408104  0.12790208  0.88648101     0.22600
C463        C  0.13689626  0.17809254  0.86943765    -0.52300
C464        C  0.12024842  0.16220540  0.88871447     0.11700
C465        C  0.17457223  0.13810785  0.87027330    -0.51800
C466        C  0.15760090  0.12245442  0.88949147     0.12300
H467        H  0.13196257  0.13302758  0.81226486     0.16800
H468        H  0.11042505  0.11498810  0.90216149     0.02600
H469        H  0.13657281  0.20256679  0.86824573     0.17100
H470        H  0.19866147  0.13632150  0.86942904     0.16900
N471        N  0.00241332  0.45426810  0.83573705    -0.34400
N472        N  0.04860156  0.00004923  0.83508893    -0.55000
N473        N  0.00237716  0.04637923  0.83807518    -0.34400
N474        N  0.45620069  0.00060629  0.83561398    -0.55000
C475        C  0.02652117  0.43690868  0.82995201     0.29200
C476        C  0.47804152  0.43709648  0.83143150     0.29200
C477        C  0.02669716  0.06373828  0.83425059     0.29200
C478        C  0.47819557  0.06406415  0.83358866     0.29200
C479        C  0.06596988  0.47532109  0.83849448     0.37800
C480        C  0.06590192  0.02416764  0.84073941     0.37800
C481        C  0.43902651  0.47620491  0.84056194     0.37800
C482        C  0.43891323  0.02512335  0.84053486     0.37800
C483        C  0.01732997  0.40827919  0.82191432    -0.19700
C484        C  0.48675534  0.40838647  0.82289545    -0.19700
C485        C  0.01786841  0.09292763  0.82745422    -0.19700
C486        C  0.48728714  0.09312017  0.82699496    -0.19700
C487        C  0.09467927  0.48379758  0.84572267    -0.20700
C488        C  0.09462927  0.01476190  0.84717520    -0.20700
C489        C  0.41047144  0.48526722  0.84802319    -0.20700
C490        C  0.41037978  0.01624829  0.84793819    -0.20700
C491        C  0.05648824  0.44529768  0.83427130    -0.16100
C492        C  0.44836625  0.44590660  0.83719550    -0.16100
C493        C  0.44826736  0.05537884  0.83767152    -0.16100
C494        C  0.05648769  0.05456088  0.83882026    -0.16100
H495        H  0.03123123  0.38908706  0.81651008     0.16800
H496        H  0.47257205  0.38932353  0.81832110     0.16800
H497        H  0.03198627  0.11222352  0.82364643     0.16800
H498        H  0.47332928  0.11260415  0.82282883     0.16800
H499        H  0.11366598  0.46922670  0.84955349     0.15100
H500        H  0.11359695  0.02872456  0.85227342     0.15100
H501        H  0.39163586  0.47106134  0.85295096     0.15100
H502        H  0.39149569  0.03057818  0.85290095     0.15100
H503        H  0.00263991  0.47514466  0.84581748     0.28400
H504        H  0.00229974  0.02489890  0.84690759     0.28400
C505        C  0.34798972  0.34267256  0.65675546     0.88700
C506        C  0.32922434  0.36211131  0.63593142    -0.51500
C507        C  0.34599007  0.37723844  0.61609167     0.11600
C508        C  0.37951953  0.37177608  0.61887415     0.22600
C509        C  0.36676850  0.32196091  0.63697341    -0.52300
C510        C  0.38319676  0.33745089  0.61707909     0.11700
C511        C  0.37040415  0.36464898  0.67019624    -0.51800
C512        C  0.38679433  0.37985109  0.65022630     0.12300
H513        H  0.30513618  0.36380531  0.63686145     0.16800
H514        H  0.39297949  0.38432427  0.60276368     0.02600
H515        H  0.36688803  0.29751139  0.63846203     0.17100
H516        H  0.37284067  0.36810540  0.69327410     0.16900
C517        C  0.15560344  0.34214939  0.64533033     0.88700
C518        C  0.13573131  0.36233906  0.66443211    -0.51500
C519        C  0.11616124  0.37951297  0.64889536     0.11600
C520        C  0.11806342  0.37495147  0.61623388     0.22600
C521        C  0.13380522  0.32352475  0.62692770    -0.52300
C522        C  0.11404911  0.34091714  0.61177638     0.11700
C523        C  0.17052896  0.36391014  0.62414399    -0.51800
C524        C  0.15073338  0.38113374  0.60913155     0.12300
H525        H  0.13740841  0.36340526  0.68778096     0.16800
H526        H  0.10212674  0.38914298  0.60379221     0.02600
H527        H  0.13390152  0.29903929  0.62609771     0.17100
H528        H  0.19447175  0.36613894  0.62186533     0.16900
N529        N  0.04161922  0.31208612  0.50167610    -0.34400
N530        N  0.99556118  0.31067570  0.54597052    -0.55000
N531        N  0.44935479  0.30711205  0.50141293    -0.34400
N532        N  0.99569597  0.31089378  0.95713592    -0.55000
C533        C  0.05809827  0.31893607  0.52524819     0.29200
C534        C  0.05818229  0.31884356  0.97814348     0.29200
C535        C  0.43247621  0.31315416  0.52501407     0.29200
C536        C  0.43257542  0.31327070  0.97777331     0.29200
C537        C  0.01979044  0.30961251  0.56331452     0.37800
C538        C  0.47152878  0.30699754  0.56316360     0.37800
C539        C  0.02001602  0.30946068  0.93995219     0.37800
C540        C  0.47176681  0.30717197  0.93982215     0.37800
C541        C  0.08575041  0.32929918  0.51652494    -0.19700
C542        C  0.08578265  0.32929675  0.98691654    -0.19700
C543        C  0.40432803  0.32227483  0.51620538    -0.19700
C544        C  0.40438645  0.32231378  0.98650968    -0.19700
C545        C  0.01110799  0.30500298  0.59164786    -0.20700
C546        C  0.48060362  0.30331604  0.59156012    -0.20700
C547        C  0.01148414  0.30462260  0.91160422    -0.20700
C548        C  0.48098094  0.30316363  0.91151476    -0.20700
C549        C  0.04930066  0.31567487  0.55443892    -0.16100
C550        C  0.04950312  0.31538212  0.94894580    -0.16100
C551        C  0.44178853  0.31087492  0.94853336    -0.16100
C552        C  0.44157798  0.31064443  0.55428493    -0.16100
H553        H  0.10404126  0.33639367  0.53005612     0.16800
H554        H  0.10410832  0.33635217  0.97341444     0.18800
H555        H  0.38572332  0.32865031  0.52975400     0.16800
H556        H  0.38583421  0.32874561  0.97291680     0.16800
H557        H  0.02521990  0.30385866  0.61053459     0.15100
H558        H  0.46664833  0.30069343  0.61040795     0.15100
H559        H  0.02571154  0.30313293  0.89282084     0.15100
H560        H  0.46712345  0.30037370  0.89261976     0.15100
H561        H  0.02126054  0.30121645  0.50163622     0.28400
H562        H  0.47038896  0.29734801  0.50143945     0.28400
C563        C  0.15537971  0.15824455  0.65267219     0.88700
C564        C  0.17371920  0.13819132  0.63209295    -0.51500
C565        C  0.15651039  0.12257859  0.61301863     0.11600
C566        C  0.12308042  0.12836426  0.61614570     0.22600
C567        C  0.13641192  0.17853898  0.63288458    -0.52300
C568        C  0.11956524  0.16267497  0.61374203     0.11700
C569        C  0.13321614  0.13673838  0.66710788    -0.51800
C570        C  0.11646683  0.12106487  0.64777656     0.12300
H571        H  0.19779456  0.13618583  0.63283838     0.16800
H572        H  0.10925015  0.11548856  0.60057325     0.02600
H573        H  0.13635856  0.20302319  0.63389686     0.17100
H574        H  0.13139688  0.13371840  0.69029406     0.16900
N575        N  0.00259233  0.45413607  0.66592315    -0.34400
N576        N  0.45625829  0.00033033  0.66537271    -0.55000
N577        N  0.00214098  0.04620437  0.66355586    -0.34400
N578        N  0.04850416  0.00008924  0.66701187    -0.55000
C579        C  0.47822491  0.43698643  0.67038832     0.29200
C580        C  0.02669565  0.43698424  0.67231499     0.29200
C581        C  0.47786509  0.06367404  0.66839993     0.29200
C582        C  0.02635139  0.06351631  0.66816187     0.29200
C583        C  0.43915338  0.47585402  0.66058317     0.37800
C584        C  0.43883751  0.02476931  0.66057033     0.37800
C585        C  0.06600906  0.47545180  0.66375920     0.37800
C586        C  0.06571535  0.02427552  0.66139038     0.37800
C587        C  0.48694561  0.40850691  0.67958992    -0.19700
C588        C  0.01751736  0.40852052  0.68085237    -0.19700
C589        C  0.48679261  0.09250225  0.67601984    -0.19700
C590        C  0.01737864  0.09241483  0.67583269    -0.19700
C591        C  0.41052657  0.48479135  0.65321311    -0.20700
C592        C  0.41031835  0.01578622  0.65324949    -0.20700
C593        C  0.09470425  0.48404995  0.65661869    -0.20700
C594        C  0.09450782  0.01500796  0.65507171    -0.20700
C595        C  0.44855092  0.44563592  0.66437418    -0.16100
C596        C  0.05667563  0.44542805  0.66819525    -0.16100
C597        C  0.05618217  0.05460165  0.66352354    -0.16100
C598        C  0.44801035  0.05501547  0.66388375    -0.16100
H599        H  0.47276689  0.38953444  0.68450346     0.16800
H600        H  0.03143087  0.38953268  0.68684743     0.16800
H601        H  0.47272710  0.11176199  0.68075924     0.16800
H602        H  0.03141209  0.11158344  0.68044574     0.16800
H603        H  0.39168632  0.47049893  0.64853464     0.15100
H604        H  0.39131910  0.03004858  0.64853111     0.15100
H605        H  0.11379443  0.46956430  0.65298293     0.15100
H606        H  0.11343627  0.02907091  0.65010981     0.15100
H607        H  0.00285080  0.47481375  0.65549062     0.28400
H608        H  0.00224375  0.02504378  0.65402761     0.28400
N609        N  0.17109188  0.45792915  0.50088942    -0.34400
N610        N  0.17534385  0.00341244  0.95625877    -0.55000
N611        N  0.17617380  0.04928366  0.50113603    -0.34400
N612        N  0.17415362  0.00348791  0.54575927    -0.55000
C613        C  0.17580724  0.44043176  0.97746975     0.29200
C614        C  0.17563798  0.44048003  0.52437385     0.29200
C615        C  0.18315938  0.06601624  0.97772433     0.29200
C616        C  0.18238660  0.06602271  0.52476217     0.29200
C617        C  0.16821280  0.47944393  0.93968575     0.37800
C618        C  0.17131703  0.02818466  0.93974710     0.37800
C619        C  0.16658697  0.47942330  0.56197115     0.37800
C620        C  0.16915527  0.02817798  0.56214438     0.37800
C621        C  0.18355558  0.41148829  0.98614491    -0.19700
C622        C  0.18351941  0.41153202  0.51579041    -0.19700
C623        C  0.19401544  0.09375474  0.98656537    -0.19700
C624        C  0.19355305  0.09374221  0.51627525    -0.19700
C625        C  0.16023475  0.48893234  0.91225203    -0.20700
C626        C  0.16219560  0.01987095  0.91228343    -0.20700
C627        C  0.15718480  0.48878153  0.58903017    -0.20700
C628        C  0.15880039  0.01974310  0.58914387    -0.20700
C629        C  0.17025072  0.44912304  0.94872911    -0.16100
C630        C  0.16961351  0.44915694  0.55304036    -0.16100
C631        C  0.17542231  0.05798882  0.55346327    -0.16100
C632        C  0.17710602  0.05799778  0.94881691    -0.16100
H633        H  0.18802761  0.39215026  0.97253249     0.16800
H634        H  0.18788915  0.39221613  0.52945569     0.16800
H635        H  0.20088238  0.11232595  0.97300125     0.16800
H636        H  0.19998993  0.11231305  0.53004658     0.16800
H637        H  0.15380273  0.47503538  0.89411833     0.15100
H638        H  0.15753862  0.03452695  0.89414797     0.15100
H639        H  0.15005896  0.47477781  0.60683255     0.15100
H640        H  0.15316833  0.03433356  0.60707215     0.15100
H641        H  0.16101967  0.47904891  0.50082859     0.28400
H642        H  0.16389177  0.02952934  0.50092505     0.28400
N643        N  0.00524140  0.19427172  0.54571118    -0.34400
N644        N  0.45995392  0.19443072  0.50084399    -0.55000
N645        N  0.00544727  0.19515288  0.95596079    -0.34400
N646        N  0.05102504  0.19298172  0.50089915    -0.55000
C647        C  0.48094407  0.18689245  0.56147065     0.29200
C648        C  0.02947176  0.18728033  0.56176594     0.29200
C649        C  0.48114395  0.18833965  0.93997637     0.29200
C650        C  0.02968623  0.18844527  0.93979251     0.29200
C651        C  0.44208309  0.19660793  0.52416338     0.37800
C652        C  0.44219512  0.19708762  0.97749834     0.37800
C653        C  0.06882484  0.19495315  0.52435744     0.37800
C654        C  0.06893767  0.19503665  0.97752794     0.37800
C655        C  0.48986593  0.17619431  0.58823813    -0.19700
C656        C  0.02041176  0.17651740  0.58846491    -0.19700
C657        C  0.49006789  0.17850574  0.91290397    -0.19700
C658        C  0.02062098  0.17864963  0.91275204    -0.19700
C659        C  0.41289947  0.20148398  0.51560639    -0.20700
C660        C  0.41297153  0.20179394  0.98603401    -0.20700
C661        C  0.09816667  0.19844440  0.51582060    -0.20700
C662        C  0.09824474  0.19844637  0.98620560    -0.20700
C663        C  0.45093022  0.18959925  0.55255461    -0.16100
C664        C  0.05954115  0.19024749  0.55315970    -0.16100
C665        C  0.05976182  0.19062965  0.94864743    -0.16100
C666        C  0.45112736  0.19057903  0.94902013    -0.16100
H667        H  0.47584772  0.16861957  0.60575119     0.16800
H668        H  0.03434067  0.16910950  0.60616803     0.16800
H669        H  0.47604558  0.17155098  0.89515447     0.16800
H670        H  0.03454359  0.17170168  0.89487549     0.16800
H671        H  0.39340427  0.20318139  0.52922048     0.15100
H672        H  0.39353609  0.20377841  0.97237109     0.15100
H673        H  0.11761895  0.19986100  0.52950047     0.15100
H674        H  0.11775556  0.19992747  0.97261274     0.15100
H675        H  0.00533798  0.20531354  0.52597205     0.28400
H676        H  0.00551885  0.20541938  0.97607350     0.28400
C677        C  0.34714058  0.15722929  0.64282600     0.88700
C678        C  0.36837118  0.13740862  0.66094127    -0.51500
C679        C  0.38707778  0.12017655  0.64444630     0.11600
C680        C  0.38303454  0.12441289  0.61190472     0.22600
C681        C  0.36744930  0.17577909  0.62312724    -0.52300
C682        C  0.38633802  0.15852571  0.60706765     0.11700
C683        C  0.33102218  0.13508221  0.62285811    -0.51800
C684        C  0.34997420  0.11776121  0.60688759     0.12300
H685        H  0.36822148  0.13666709  0.68435768     0.16800
H686        H  0.39835017  0.11032567  0.59865779     0.02600
H687        H  0.36732022  0.20027904  0.62237775     0.17100
H688        H  0.30700524  0.13258893  0.62216400     0.16900
N689        N  0.32651618  0.03916737  0.50135449    -0.34400
N690        N  0.32417957  0.49366900  0.95645033    -0.55000
N691        N  0.32516371  0.44751115  0.50137276    -0.34400
N692        N  0.32486804  0.49361976  0.54623334    -0.55000
C693        C  0.32125609  0.05650913  0.97793945     0.29200
C694        C  0.32136215  0.05646664  0.52482431     0.29200
C695        C  0.32012744  0.43020138  0.97778717     0.29200
C696        C  0.32025241  0.43024290  0.52499043     0.29200
C697        C  0.33067401  0.01801402  0.94007827     0.37800
C698        C  0.32932506  0.46913684  0.93985231     0.37800
C699        C  0.33133505  0.01797447  0.56258174     0.37800
C700        C  0.33012900  0.46910376  0.56279865     0.37800
C701        C  0.31230296  0.08510069  0.98659687    -0.19700
C702        C  0.31230929  0.08505741  0.51624346    -0.19700
C703        C  0.31206047  0.40145792  0.98653685    -0.19700
C704        C  0.31192227  0.40155923  0.51628701    -0.19700
C705        C  0.33929379  0.00899277  0.91269717    -0.20700
C706        C  0.33830128  0.47801057  0.91249302    -0.20700
C707        C  0.34011357  0.00897618  0.58992653    -0.20700
C708        C  0.33935085  0.47798732  0.59008103    -0.20700
C709        C  0.32783793  0.04823756  0.94930233    -0.16100
C710        C  0.32809919  0.04817573  0.55342817    -0.16100
C711        C  0.32567683  0.43892480  0.55395884    -0.16100
C712        C  0.32526395  0.43892017  0.94878305    -0.16100
H713        H  0.30718923  0.10425712  0.97296346     0.16800
H714        H  0.30724316  0.10419573  0.52992179     0.16800
H715        H  0.30722990  0.38227758  0.97290290     0.16800
H716        H  0.30709462  0.38240199  0.52994542     0.16800
H717        H  0.34556903  0.02321930  0.89474990     0.15100
H718        H  0.34384535  0.46368411  0.89434501     0.15100
H719        H  0.34635471  0.02322585  0.60787245     0.15100
H720        H  0.34497066  0.46366661  0.60820821     0.15100
H721        H  0.33763259  0.01859545  0.50129968     0.28400
H722        H  0.33522856  0.46847573  0.50131742     0.28400
C723        C  0.34007751  0.09323267  0.58903076    -0.11100
C724        C  0.33354015  0.07228845  0.57377664    -0.12600
C725        C  0.40862798  0.17134940  0.58842538    -0.11100
C726        C  0.42779376  0.18092170  0.57272377    -0.12600
C727        C  0.42580195  0.07874829  0.66116108    -0.11100
C728        C  0.40786624  0.09830968  0.65579065    -0.12600
C729        C  0.09995510  0.17643513  0.59284600    -0.11100
C730        C  0.08227252  0.18449725  0.57478816    -0.12600
C731        C  0.16787494  0.10106829  0.59245120    -0.11100
C732        C  0.17313446  0.08179200  0.57479582    -0.12600
C733        C  0.07810006  0.07817740  0.66038606    -0.11100
C734        C  0.09564751  0.09806945  0.65591802    -0.12600
C735        C  0.07168678  0.32148704  0.57651550    -0.11100
C736        C  0.09104524  0.32884639  0.59322680    -0.12600
C737        C  0.15956861  0.40498971  0.59007387    -0.11100
C738        C  0.16508532  0.42543962  0.57392151    -0.12600
C739        C  0.07877047  0.42155237  0.66647280    -0.11100
C740        C  0.09635969  0.40170857  0.66112411    -0.12600
C741        C  0.41941526  0.31584738  0.57678457    -0.11100
C742        C  0.40228645  0.32352084  0.59561409    -0.12600
C743        C  0.33407611  0.39729690  0.59437783    -0.11100
C744        C  0.32841389  0.41548887  0.57573969    -0.12600
C745        C  0.42654948  0.42199067  0.66164058    -0.11100
C746        C  0.40843170  0.40246986  0.65758391    -0.12600
C747        C  0.07856479  0.07793980  0.84223745    -0.11100
C748        C  0.09635109  0.09757391  0.84684564    -0.12600
C749        C  0.17488565  0.08192638  0.92764032    -0.11100
C750        C  0.16932951  0.10116694  0.91005419    -0.12600
C751        C  0.10039674  0.17599680  0.90939830    -0.11100
C752        C  0.08257296  0.18439157  0.92719972    -0.12600
C753        C  0.07195901  0.32090805  0.92691359    -0.11100
C754        C  0.09115158  0.32815808  0.91001224    -0.12600
C755        C  0.07840648  0.42130670  0.83640884    -0.11100
C756        C  0.09570099  0.40123945  0.84186277    -0.12600
C757        C  0.16526603  0.42538014  0.92792321    -0.11100
C758        C  0.15936689  0.40479106  0.91202796    -0.12600
C759        C  0.34050477  0.09315828  0.91371174    -0.11100
C760        C  0.33368638  0.07234068  0.92902554    -0.12600
C761        C  0.42612792  0.07911966  0.84074135    -0.11100
C762        C  0.40814618  0.09854201  0.84639533    -0.12600
C763        C  0.40886337  0.17170134  0.91347143    -0.11100
C764        C  0.42805920  0.18164956  0.92890618    -0.12600
C765        C  0.33422962  0.39729320  0.90846184    -0.11100
C766        C  0.32831399  0.41545513  0.92705990    -0.12600
C767        C  0.41973560  0.31610290  0.92592651    -0.11100
C768        C  0.40266470  0.32376549  0.90703713    -0.12600
C769        C  0.42636618  0.42231469  0.84042997    -0.11100
C770        C  0.40834678  0.40278045  0.84485917    -0.12600
C771        C  0.31624390  0.31133205  0.80712742    -0.11100
C772        C  0.33028384  0.32626317  0.82429892    -0.12600
C773        C  0.32662915  0.17568861  0.84254226    -0.11100
C774        C  0.31125568  0.19174174  0.82768127    -0.12600
C775        C  0.17660237  0.32346266  0.84069240    -0.11100
C776        C  0.19462749  0.30868501  0.82738192    -0.12600
C777        C  0.31620403  0.31135663  0.69578956    -0.11100
C778        C  0.33018974  0.32625147  0.67855726    -0.12600
C779        C  0.18793675  0.19072131  0.81274086    -0.11100
C780        C  0.17377403  0.17494166  0.82882335    -0.12600
C781        C  0.19522988  0.30909568  0.67506857    -0.11100
C782        C  0.17735746  0.32397907  0.66166283    -0.12600
C783        C  0.31152237  0.19200458  0.67502824    -0.11100
C784        C  0.32686650  0.17603876  0.66004397    -0.12600
C785        C  0.18783185  0.19096123  0.68947291    -0.11100
C786        C  0.17347398  0.17529111  0.67341203    -0.12600
O787        O  0.23181980  0.77126744  0.17894430    -0.77900
O788        O  0.27292179  0.79186713  0.28562340    -0.77900
O789        O  0.21427912  0.79134929  0.28306173    -0.78000
O790        O  0.31433457  0.76627196  0.22198793    -0.77900
O791        O  0.23161138  0.77120186  0.32379107    -0.78000
O792        O  0.27294237  0.79185121  0.21731495    -0.77900
O793        O  0.31427134  0.76620749  0.28102842    -0.77900
O794        O  0.21432402  0.79150106  0.21958001    -0.78000
C795        C  0.21441064  0.78963168  0.19167239     1.11800
C796        C  0.30061656  0.78967081  0.28943356     1.11600
C797        C  0.21411709  0.78940186  0.31095540     1.11800
C798        C  0.30064726  0.78969992  0.21355394     1.11700
O799        O  0.28303138  0.73464659  0.18807941    -0.77900
O800        O  0.23172919  0.71493448  0.30000367    -0.78000
O801        O  0.19149462  0.73056263  0.22261069    -0.77900
O802        O  0.29757789  0.70333674  0.28083256    -0.77900
O803        O  0.28289051  0.73453575  0.31476506    -0.78000
O804        O  0.23176265  0.71489527  0.20264216    -0.77900
O805        O  0.29771648  0.70339571  0.22195638    -0.77900
O806        O  0.19151998  0.73035024  0.27970083    -0.78000
Co807      Co  0.25044868  0.75374900  0.21182523     1.51500
Co808      Co  0.25040438  0.75375774  0.29095221     1.51700
Co809      Co  0.20933964  0.75898308  0.25126053     1.51600
Co810      Co  0.30245494  0.73506465  0.25144670     1.51500
O811        O  0.25640814  0.74092425  0.25137467    -1.39900
C812        C  0.29628347  0.71056452  0.19569091     1.11700
C813        C  0.20449425  0.71230961  0.29629627     1.11800
C814        C  0.20446401  0.71244352  0.20608835     1.11700
C815        C  0.29610187  0.71043609  0.30711185     1.11700
C816        C  0.34813030  0.84275861  0.34603774     0.88700
C817        C  0.37039292  0.86481692  0.33250059    -0.51500
C818        C  0.38683546  0.88008976  0.35238553     0.11600
C819        C  0.37974574  0.87198920  0.38378365     0.22600
C820        C  0.36707750  0.82211808  0.36573092    -0.52300
C821        C  0.38354751  0.83766573  0.38556105     0.11700
C822        C  0.32940276  0.86212412  0.36694885    -0.51800
C823        C  0.34619852  0.87731585  0.38672009     0.12300
H824        H  0.37269190  0.86827929  0.30941136     0.16800
H825        H  0.39323439  0.88458879  0.39983817     0.02600
H826        H  0.36724007  0.79766686  0.36425932     0.17100
H827        H  0.30530426  0.86372209  0.36612882     0.16900
C828        C  0.34706906  0.65697252  0.35966012     0.88700
C829        C  0.33117767  0.63476579  0.37972069    -0.51500
C830        C  0.35028470  0.61758298  0.39565100     0.11600
C831        C  0.38330424  0.62441766  0.39046104     0.22600
C832        C  0.36735515  0.67567085  0.37922541    -0.52300
C833        C  0.38643673  0.65857646  0.39519780     0.11700
C834        C  0.36832855  0.63727021  0.34146919    -0.51800
C835        C  0.38721881  0.62017738  0.35789252     0.12300
H836        H  0.30717664  0.63217162  0.38054560     0.16800
H837        H  0.39877799  0.61045654  0.40365332     0.02600
H838        H  0.36712345  0.70017447  0.37989745     0.17100
H839        H  0.36810279  0.63653630  0.31805279     0.16900
C840        C  0.15491299  0.84157290  0.35714455     0.88700
C841        C  0.16999541  0.86346078  0.37811814    -0.51500
C842        C  0.15033194  0.88067925  0.39329925     0.11600
C843        C  0.11760821  0.87432685  0.38657010     0.22600
C844        C  0.13341283  0.82291213  0.37579909    -0.52300
C845        C  0.11379875  0.84027466  0.39113518     0.11700
C846        C  0.13476404  0.86163730  0.33820745    -0.51800
C847        C  0.11533918  0.87881096  0.35391885     0.12300
H848        H  0.19395353  0.86582263  0.38008506     0.16800
H849        H  0.10176165  0.88848885  0.39915115     0.02600
H850        H  0.13361814  0.79842738  0.37668747     0.17100
H851        H  0.13625621  0.86273777  0.31484838     0.16900
C852        C  0.15596057  0.65784847  0.34969916     0.88700
C853        C  0.13393790  0.63608390  0.33544642    -0.51500
C854        C  0.11738104  0.62039867  0.35490634     0.11600
C855        C  0.12408045  0.62790362  0.38649213     0.22600
C856        C  0.13689891  0.67809130  0.36944345    -0.52300
C857        C  0.12024950  0.66220777  0.38872205     0.11700
C858        C  0.17457252  0.63810390  0.37028304    -0.51800
C859        C  0.15760015  0.62245360  0.38950268     0.12300
H860        H  0.13196416  0.63301902  0.31227562     0.16800
H861        H  0.11042358  0.61499184  0.40217354     0.02600
H862        H  0.13657635  0.70256534  0.36824792     0.17100
H863        H  0.19866146  0.63631373  0.36943720     0.16900
N864        N  0.00242328  0.95427187  0.33573063    -0.34400
N865        N  0.04861189  0.50004568  0.33507143    -0.55000
N866        N  0.00238606  0.54637651  0.33807448    -0.34400
N867        N  0.45620636  0.50060353  0.33560585    -0.55000
C868        C  0.02653264  0.93691298  0.32994982     0.29200
C869        C  0.47804943  0.93709611  0.33142431     0.29200
C870        C  0.02670573  0.56373499  0.33424713     0.29200
C871        C  0.47819928  0.56406306  0.33359874     0.29200
C872        C  0.06597963  0.97532961  0.33848754     0.37800
C873        C  0.06591238  0.52416363  0.34072319     0.37800
C874        C  0.43902963  0.97620286  0.34054972     0.37800
C875        C  0.43891761  0.52511893  0.34053149     0.37800
C876        C  0.01734332  0.90828085  0.32191840    -0.19700
C877        C  0.48676724  0.90838400  0.32289843    -0.19700
C878        C  0.01787686  0.59292513  0.32745392    -0.19700
C879        C  0.48728939  0.59312075  0.32701024    -0.19700
C880        C  0.09468998  0.98380832  0.34571003    -0.20700
C881        C  0.09464129  0.51475792  0.34715250    -0.20700
C882        C  0.41047363  0.98526162  0.34801165    -0.20700
C883        C  0.41038253  0.51624109  0.34792498    -0.20700
C884        C  0.05649963  0.94530541  0.33426561    -0.16100
C885        C  0.44837203  0.94590507  0.33718261    -0.16100
C886        C  0.44827142  0.55537595  0.33768049    -0.16100
C887        C  0.05649623  0.55455683  0.33881382    -0.16100
H888        H  0.03124584  0.88908826  0.31651869     0.16800
H889        H  0.47258640  0.88931793  0.31832888     0.16800
H890        H  0.03199483  0.61222070  0.32364495     0.16800
H891        H  0.47333062  0.61260545  0.32285004     0.16800
H892        H  0.11367921  0.96923906  0.34953471     0.15100
H893        H  0.11360923  0.52872035  0.35225032     0.15100
H894        H  0.39163887  0.97105342  0.35293591     0.15100
H895        H  0.39149721  0.53056909  0.35288801     0.15100
H896        H  0.00264811  0.97515122  0.34580558     0.28400
H897        H  0.00231025  0.52489602  0.34690650     0.28400
C898        C  0.34800556  0.84265464  0.15676396     0.88700
C899        C  0.32923413  0.86209077  0.13594234    -0.51500
C900        C  0.34599405  0.87721868  0.11609827     0.11600
C901        C  0.37952440  0.87175849  0.11887438     0.22600
C902        C  0.36678224  0.82194320  0.13697975    -0.52300
C903        C  0.38320487  0.83743327  0.11708095     0.11700
C904        C  0.37042055  0.86463385  0.17019890    -0.51800
C905        C  0.38680414  0.87983655  0.15022455     0.12300
H906        H  0.30514620  0.86378410  0.13687843     0.16800
H907        H  0.39298002  0.88430712  0.10276081     0.02600
H908        H  0.36690494  0.79749383  0.13847066     0.17100
H909        H  0.37286042  0.86809354  0.19327602     0.16900
C910        C  0.15560248  0.84215536  0.14533980     0.88700
C911        C  0.13572487  0.86234293  0.16443834    -0.51500
C912        C  0.11615442  0.87951358  0.14889868     0.11600
C913        C  0.11806107  0.87495156  0.11623763     0.22600
C914        C  0.13380817  0.82352722  0.12693476    -0.52300
C915        C  0.11405106  0.84091670  0.11178063     0.11700
C916        C  0.17052704  0.86391822  0.12415415    -0.51800
C917        C  0.15073093  0.88113850  0.10913835     0.12300
H918        H  0.13739910  0.86341072  0.18778732     0.16800
H919        H  0.10212383  0.88914061  0.10379404     0.02600
H920        H  0.13390705  0.79904174  0.12610620     0.17100
H921        H  0.19446972  0.86615044  0.12187807     0.16900
N922        N  0.04162075  0.81209281  0.00167898    -0.34400
N923        N  0.99556254  0.81066823  0.04597096    -0.55000
N924        N  0.44936239  0.80709875  0.00141166    -0.34400
N925        N  0.99569888  0.81090207  0.45713668    -0.55000
C926        C  0.05809233  0.81895948  0.02525165     0.29200
C927        C  0.05819199  0.81882457  0.47814631     0.29200
C928        C  0.43247985  0.81313007  0.02501256     0.29200
C929        C  0.43257702  0.81329191  0.47777345     0.29200
C930        C  0.01979191  0.80960272  0.06331496     0.37800
C931        C  0.47153458  0.80698108  0.06316155     0.37800
C932        C  0.02001850  0.80947237  0.43995254     0.37800
C933        C  0.47176556  0.80718423  0.43982176     0.37800
C934        C  0.08573285  0.82935493  0.01652954    -0.19700
C935        C  0.08580393  0.82924559  0.48692068    -0.19700
C936        C  0.40432619  0.82223254  0.01620319    -0.19700
C937        C  0.40439382  0.82235415  0.48650911    -0.19700
C938        C  0.01111003  0.80498044  0.09164650    -0.20700
C939        C  0.48060980  0.80328794  0.09155658    -0.20700
C940        C  0.01148613  0.80464515  0.41160290    -0.20700
C941        C  0.48097877  0.80318570  0.41151285    -0.20700
C942        C  0.04929992  0.81567982  0.05444177    -0.16100
C943        C  0.04950727  0.81538122  0.44894802    -0.16100
C944        C  0.44178832  0.81088979  0.44853379    -0.16100
C945        C  0.44158311  0.81062555  0.05428358    -0.16100
H946        H  0.10401521  0.83646975  0.03006165     0.16800
H947        H  0.10413793  0.83628087  0.47341949     0.18800
H948        H  0.38571671  0.82859439  0.02975144     0.16800
H949        H  0.38584650  0.82879978  0.47291582     0.16800
H950        H  0.02522197  0.80383233  0.11053297     0.15100
H951        H  0.46665454  0.80065447  0.11040301     0.15100
H952        H  0.02571318  0.80315959  0.39281897     0.15100
H953        H  0.46712102  0.80040423  0.39261687     0.15100
H954        H  0.02127525  0.80119641  0.00163824     0.28400
H955        H  0.47040308  0.79734948  0.00143870     0.28400
C956        C  0.15537861  0.65824609  0.15268331     0.88700
C957        C  0.17372087  0.63819630  0.13210341    -0.51500
C958        C  0.15651405  0.62257911  0.11303095     0.11600
C959        C  0.12308331  0.62835712  0.11616014     0.22600
C960        C  0.13640545  0.67853538  0.13289612    -0.52300
C961        C  0.11956160  0.66266670  0.11375515     0.11700
C962        C  0.13322002  0.63673530  0.16712146    -0.51800
C963        C  0.11647226  0.62105739  0.14779141     0.12300
H964        H  0.19779687  0.63619793  0.13284568     0.16800
H965        H  0.10925497  0.61547832  0.10058841     0.02600
H966        H  0.13634855  0.70301973  0.13390573     0.17100
H967        H  0.13140161  0.63371740  0.19030792     0.16900
N968        N  0.00258270  0.95413544  0.16591674    -0.34400
N969        N  0.45625480  0.50032845  0.16536411    -0.55000
N970        N  0.00213624  0.54620056  0.16355788    -0.34400
N971        N  0.04849570  0.50008410  0.16699810    -0.55000
C972        C  0.47821800  0.93698880  0.17038049     0.29200
C973        C  0.02668617  0.93698538  0.17231169     0.29200
C974        C  0.47786586  0.56366818  0.16841136     0.29200
C975        C  0.02634796  0.56351074  0.16816534     0.29200
C976        C  0.43915077  0.97585377  0.16056010     0.37800
C977        C  0.43883687  0.52476952  0.16056304     0.37800
C978        C  0.06599769  0.97545115  0.16374443     0.37800
C979        C  0.06570698  0.52426980  0.16137428     0.37800
C980        C  0.48693679  0.90851314  0.17959466    -0.19700
C981        C  0.01750856  0.90852361  0.18085586    -0.19700
C982        C  0.48679564  0.59249236  0.17604271    -0.19700
C983        C  0.01737672  0.59240723  0.17584449    -0.19700
C984        C  0.41052858  0.98479200  0.15317417    -0.20700
C985        C  0.41031957  0.51578989  0.15323062    -0.20700
C986        C  0.09469106  0.98404872  0.15659634    -0.20700
C987        C  0.09449559  0.51500049  0.15504153    -0.20700
C988        C  0.44854604  0.94563642  0.16435808    -0.16100
C989        C  0.05666543  0.94542828  0.16818731    -0.16100
C990        C  0.05617816  0.55459630  0.16352100    -0.16100
C991        C  0.44801074  0.55501369  0.16388977    -0.16100
H992        H  0.47275707  0.88954316  0.18451434     0.16800
H993        H  0.03142252  0.88953734  0.18685441     0.16800
H994        H  0.47273140  0.61175079  0.18079049     0.16800
H995        H  0.03141115  0.61157439  0.18046027     0.16800
H996        H  0.39169155  0.97050002  0.14848182     0.15100
H997        H  0.39132248  0.53005457  0.14850995     0.15100
H998        H  0.11378001  0.96956259  0.15295627     0.15100
H999        H  0.11342324  0.52906258  0.15007459     0.15100
H1000       H  0.00284068  0.97481057  0.15547902     0.28400
H1001       H  0.00223671  0.52504231  0.15402474     0.28400
N1002       N  0.17108603  0.95793516  0.00088999    -0.34400
N1003       N  0.17534312  0.50340235  0.45625789    -0.55000
N1004       N  0.17617384  0.54929857  0.00113622    -0.34400
N1005       N  0.17415929  0.50349951  0.04576010    -0.55000
C1006       C  0.17581547  0.94042636  0.47747013     0.29200
C1007       C  0.17562595  0.94048317  0.02437395     0.29200
C1008       C  0.18317154  0.56599925  0.47772207     0.29200
C1009       C  0.18238018  0.56604008  0.02476242     0.29200
C1010       C  0.16819410  0.97943427  0.43969028     0.37800
C1011       C  0.17130592  0.52817461  0.43974910     0.37800
C1012       C  0.16659955  0.97942813  0.06197718     0.37800
C1013       C  0.16916832  0.52818933  0.06214805     0.37800
C1014       C  0.18358573  0.91148861  0.48614463    -0.19700
C1015       C  0.18349659  0.91153272  0.01578908    -0.19700
C1016       C  0.19404625  0.59373026  0.48656253    -0.19700
C1017       C  0.19353510  0.59376448  0.01627533    -0.19700
C1018       C  0.16019606  0.98892305  0.41226210    -0.20700
C1019       C  0.16216636  0.51986195  0.41229091    -0.20700
C1020       C  0.15721985  0.98878536  0.08904373    -0.20700
C1021       C  0.15882851  0.51975334  0.08915267    -0.20700
C1022       C  0.17024674  0.94911425  0.44873147    -0.16100
C1023       C  0.16961155  0.94916109  0.05304259    -0.16100
C1024       C  0.17542598  0.55800193  0.05346492    -0.16100
C1025       C  0.17710652  0.55798562  0.44881637    -0.16100
H1026       H  0.18807155  0.89215427  0.47253162     0.16800
H1027       H  0.18786094  0.89221485  0.02945337     0.16800
H1028       H  0.20092524  0.61229634  0.47299782     0.16800
H1029       H  0.19996589  0.61233770  0.03004645     0.16800
H1030       H  0.15375269  0.97502605  0.39413228     0.15100
H1031       H  0.15749837  0.53451879  0.39415871     0.15100
H1032       H  0.15010592  0.97478136  0.10685044     0.15100
H1033       H  0.15320480  0.53434299  0.10708398     0.15100
H1034       H  0.16102287  0.97905932  0.00082988     0.28400
H1035       H  0.16390118  0.52953797  0.00092497     0.28400
N1036       N  0.00524901  0.69426176  0.04571014    -0.34400
N1037       N  0.45996070  0.69442404  0.00084238    -0.55000
N1038       N  0.00544089  0.69516197  0.45595904    -0.34400
N1039       N  0.05103569  0.69296719  0.00089968    -0.55000
C1040       C  0.48094707  0.68688411  0.06146858     0.29200
C1041       C  0.02947777  0.68726423  0.06176466     0.29200
C1042       C  0.48113819  0.68834575  0.43997608     0.29200
C1043       C  0.02968042  0.68845652  0.43979065     0.29200
C1044       C  0.44209094  0.69661839  0.02416188     0.37800
C1045       C  0.44218703  0.69707667  0.47749996     0.37800
C1046       C  0.06883553  0.69492870  0.02435854     0.37800
C1047       C  0.06892942  0.69505554  0.47752643     0.37800
C1048       C  0.48986520  0.67617645  0.08823381    -0.19700
C1049       C  0.02041535  0.67650111  0.08846283    -0.19700
C1050       C  0.49006357  0.67851570  0.41290284    -0.19700
C1051       C  0.02061600  0.67865923  0.41275053    -0.19700
C1052       C  0.41291173  0.70151797  0.01560330    -0.20700
C1053       C  0.41295969  0.70175848  0.48603615    -0.20700
C1054       C  0.09817980  0.69840400  0.01582291    -0.20700
C1055       C  0.09823470  0.69847873  0.48620419    -0.20700
C1056       C  0.45093365  0.68961140  0.05255575    -0.16100
C1057       C  0.05954800  0.69022778  0.05316025    -0.16100
C1058       C  0.05975574  0.69064342  0.44864589    -0.16100
C1059       C  0.45112183  0.69057010  0.44902289    -0.16100
H1060       H  0.47584437  0.66860477  0.10574608     0.16800
H1061       H  0.03434258  0.66908876  0.10616552     0.16800
H1062       H  0.47604229  0.67155644  0.39515419     0.16800
H1063       H  0.03453920  0.67171242  0.39487401     0.16800
H1064       H  0.39341805  0.70323565  0.02921720     0.15100
H1065       H  0.39352182  0.70372513  0.47237419     0.15100
H1066       H  0.11763251  0.69980904  0.02950342     0.15100
H1067       H  0.11774462  0.69996947  0.47261118     0.15100
H1068       H  0.00534810  0.70530623  0.02597224     0.28400
H1069       H  0.00551131  0.70542817  0.47607195     0.28400
C1070       C  0.34714264  0.65722845  0.14283970     0.88700
C1071       C  0.36837071  0.63740465  0.16095410    -0.51500
C1072       C  0.38708938  0.62018641  0.14445907     0.11600
C1073       C  0.38305828  0.62443654  0.11191725     0.22600
C1074       C  0.36745453  0.67579356  0.12315620    -0.52300
C1075       C  0.38635350  0.65855344  0.10709417     0.11700
C1076       C  0.33103886  0.63508526  0.12285585    -0.51800
C1077       C  0.35000159  0.61777487  0.10688591     0.12300
H1078       H  0.36820895  0.63664897  0.18437007     0.16800
H1079       H  0.39838315  0.61035952  0.09867058     0.02600
H1080       H  0.36731540  0.70029376  0.12241429     0.17100
H1081       H  0.30702326  0.63258159  0.12215577     0.16900
N1082       N  0.32654994  0.53916887  0.00135766    -0.34400
N1083       N  0.32418309  0.99367375  0.45645229    -0.55000
N1084       N  0.32515068  0.94749377  0.00137204    -0.34400
N1085       N  0.32484454  0.99361296  0.04624008    -0.55000
C1086       C  0.32120674  0.55649641  0.47793795     0.29200
C1087       C  0.32142130  0.55647789  0.02482742     0.29200
C1088       C  0.32006688  0.93023903  0.47778933     0.29200
C1089       C  0.32030432  0.93020541  0.02499061     0.29200
C1090       C  0.33074900  0.51801611  0.44010304     0.37800
C1091       C  0.32941436  0.96914159  0.43988068     0.37800
C1092       C  0.33125962  0.51796849  0.06261238     0.37800
C1093       C  0.33003314  0.96909645  0.06282767     0.37800
C1094       C  0.31220260  0.58507223  0.48659456    -0.19700
C1095       C  0.31242393  0.58508553  0.01624486    -0.19700
C1096       C  0.31188132  0.90153085  0.48653850    -0.19700
C1097       C  0.31208976  0.90148776  0.01628383    -0.19700
C1098       C  0.33950011  0.50899272  0.41276134    -0.20700
C1099       C  0.33852055  0.97801001  0.41256116    -0.20700
C1100       C  0.33990629  0.50897031  0.08999614    -0.20700
C1101       C  0.33913646  0.97798447  0.09014692    -0.20700
C1102       C  0.32783370  0.54823646  0.44930871    -0.16100
C1103       C  0.32810761  0.54817414  0.05344006    -0.16100
C1104       C  0.32565788  0.93890818  0.05396897    -0.16100
C1105       C  0.32527836  0.93893386  0.44879475    -0.16100
H1106       H  0.30706362  0.60422102  0.47296008     0.16800
H1107       H  0.30738078  0.60423107  0.02992179     0.16800
H1108       H  0.30698037  0.88237017  0.47290339     0.16800
H1109       H  0.30733033  0.88231035  0.02993935     0.16800
H1110       H  0.34584887  0.52321870  0.39483835     0.15100
H1111       H  0.34415410  0.96367923  0.39444186     0.15100
H1112       H  0.34607564  0.52321914  0.10796643     0.15100
H1113       H  0.34468022  0.96366729  0.10829839     0.15100
H1114       H  0.33762406  0.51857673  0.00130410     0.28400
H1115       H  0.33511486  0.96850359  0.00131792     0.28400
C1116       C  0.34011602  0.59323552  0.08903347    -0.11100
C1117       C  0.33356899  0.57228517  0.07378893    -0.12600
C1118       C  0.40863402  0.67139051  0.08844657    -0.11100
C1119       C  0.42779349  0.68095688  0.07273260    -0.12600
C1120       C  0.42580477  0.57874912  0.16117192    -0.11100
C1121       C  0.40787277  0.59831431  0.15580285    -0.12600
C1122       C  0.09995437  0.67642152  0.09285443    -0.11100
C1123       C  0.08227585  0.68447970  0.07479186    -0.12600
C1124       C  0.16788156  0.60107535  0.09245918    -0.11100
C1125       C  0.17314069  0.58180311  0.07479980    -0.12600
C1126       C  0.07809972  0.57817119  0.16039334    -0.11100
C1127       C  0.09565133  0.59806202  0.15593257    -0.12600
C1128       C  0.07168695  0.82148806  0.07651938    -0.11100
C1129       C  0.09104712  0.82884415  0.09323087    -0.12600
C1130       C  0.15956510  0.90499440  0.09007871    -0.11100
C1131       C  0.16508212  0.92544345  0.07392461    -0.12600
C1132       C  0.07876025  0.92155267  0.16646865    -0.11100
C1133       C  0.09635009  0.90170846  0.16112392    -0.12600
C1134       C  0.41942090  0.81582854  0.07678399    -0.11100
C1135       C  0.40229328  0.82350316  0.09561439    -0.12600
C1136       C  0.33407410  0.89728040  0.09438897    -0.11100
C1137       C  0.32840508  0.91547392  0.07575321    -0.12600
C1138       C  0.42654618  0.92199055  0.16162702    -0.11100
C1139       C  0.40843426  0.90246358  0.15757579    -0.12600
C1140       C  0.07857090  0.57793566  0.34224132    -0.11100
C1141       C  0.09635373  0.59757056  0.34685710    -0.12600
C1142       C  0.17488437  0.58191627  0.42764266    -0.11100
C1143       C  0.16932742  0.60116114  0.41006124    -0.12600
C1144       C  0.10039501  0.67600339  0.40940195    -0.11100
C1145       C  0.08256881  0.68440210  0.42720006    -0.12600
C1146       C  0.07196069  0.82091129  0.42691563    -0.11100
C1147       C  0.09114761  0.82816386  0.41001019    -0.12600
C1148       C  0.07842008  0.92131646  0.33640160    -0.11100
C1149       C  0.09571339  0.90124838  0.34185592    -0.12600
C1150       C  0.16526461  0.92537035  0.42792756    -0.11100
C1151       C  0.15936669  0.90478198  0.41203198    -0.12600
C1152       C  0.34047656  0.59315525  0.41371345    -0.11100
C1153       C  0.33366577  0.57234178  0.42903356    -0.12600
C1154       C  0.42613060  0.57911556  0.34075563    -0.11100
C1155       C  0.40814577  0.59853555  0.34640945    -0.12600
C1156       C  0.40885675  0.67167120  0.41348927    -0.11100
C1157       C  0.42805657  0.68162420  0.42891484    -0.12600
C1158       C  0.33423966  0.89730318  0.40847966    -0.11100
C1159       C  0.32832671  0.91546413  0.42707870    -0.12600
C1160       C  0.41973548  0.81611745  0.42592755    -0.11100
C1161       C  0.40266521  0.82377890  0.40703774    -0.12600
C1162       C  0.42637163  0.92231257  0.34041708    -0.11100
C1163       C  0.40834674  0.90278410  0.34485073    -0.12600
C1164       C  0.31622650  0.81133968  0.30714809    -0.11100
C1165       C  0.33026593  0.82627516  0.32431678    -0.12600
C1166       C  0.32663742  0.67569648  0.34255423    -0.11100
C1167       C  0.31126154  0.69175222  0.32769905    -0.12600
C1168       C  0.17659748  0.82345474  0.34069950    -0.11100
C1169       C  0.19462147  0.80867254  0.32739424    -0.12600
C1170       C  0.31622411  0.81134599  0.19580674    -0.11100
C1171       C  0.33021065  0.82623532  0.17857079    -0.12600
C1172       C  0.18793736  0.69070826  0.31274170    -0.11100
C1173       C  0.17377581  0.67493164  0.32882779    -0.12600
C1174       C  0.19523378  0.80910965  0.17508491    -0.11100
C1175       C  0.17735862  0.82398904  0.16167678    -0.12600
C1176       C  0.31151410  0.69198945  0.17504806    -0.11100
C1177       C  0.32685730  0.67602488  0.16006050    -0.12600
C1178       C  0.18783142  0.69097414  0.18947451    -0.11100
C1179       C  0.17347224  0.67529925  0.17341889    -0.12600
O1180       O  0.23180984  0.77124336  0.67892638    -0.77900
O1181       O  0.27293712  0.79186977  0.78559966    -0.77900
O1182       O  0.21428117  0.79135917  0.78304056    -0.78000
O1183       O  0.31432772  0.76627894  0.72197321    -0.77900
O1184       O  0.23162267  0.77122618  0.82377317    -0.78000
O1185       O  0.27292891  0.79184739  0.71729186    -0.77900
O1186       O  0.31427929  0.76619787  0.78101364    -0.77900
O1187       O  0.21432253  0.79149097  0.71955864    -0.78000
C1188       C  0.21440551  0.78961339  0.69165204     1.11800
C1189       C  0.30063050  0.78966560  0.78941508     1.11600
C1190       C  0.21412337  0.78942032  0.81093536     1.11800
C1191       C  0.30063520  0.78970324  0.71353622     1.11700
O1192       O  0.28302950  0.73465076  0.68806128    -0.77900
O1193       O  0.23172497  0.71495251  0.80000052    -0.78000
O1194       O  0.19149792  0.73055081  0.72260258    -0.77900
O1195       O  0.29757967  0.70333182  0.78081226    -0.77900
O1196       O  0.28289226  0.73453098  0.81474686    -0.78000
O1197       O  0.23176657  0.71487743  0.70263856    -0.77900
O1198       O  0.29771429  0.70339863  0.72193526    -0.77900
O1199       O  0.19151649  0.73036177  0.77969277    -0.78000
Co1200     Co  0.25044379  0.75373833  0.71181049     1.51500
Co1201     Co  0.25040978  0.75376802  0.79093728     1.51700
Co1202     Co  0.20933975  0.75898288  0.75124622     1.51600
Co1203     Co  0.30245505  0.73506342  0.75142866     1.51500
O1204       O  0.25640819  0.74092363  0.75136280    -1.39900
C1205       C  0.29628660  0.71057223  0.69567116     1.11700
C1206       C  0.20449016  0.71232682  0.79629329     1.11800
C1207       C  0.20446782  0.71242646  0.70608488     1.11700
C1208       C  0.29609848  0.71042753  0.80709279     1.11700
C1209       C  0.34813651  0.84274667  0.84603158     0.88700
C1210       C  0.37040124  0.86480623  0.83250026    -0.51500
C1211       C  0.38683608  0.88008118  0.85238949     0.11600
C1212       C  0.37973865  0.87198024  0.88378580     0.22600
C1213       C  0.36707970  0.82210781  0.86572977    -0.52300
C1214       C  0.38354318  0.83765679  0.88556400     0.11700
C1215       C  0.32940134  0.86211166  0.86693732    -0.51800
C1216       C  0.34619024  0.87730527  0.88671315     0.12300
H1217       H  0.37270619  0.86826899  0.80941162     0.16800
H1218       H  0.39322205  0.88458116  0.89984349     0.02600
H1219       H  0.36724656  0.79765668  0.86425669     0.17100
H1220       H  0.30530309  0.86370906  0.86610941     0.16900
C1221       C  0.34707315  0.65697422  0.85964772     0.88700
C1222       C  0.33120014  0.63477011  0.87972584    -0.51500
C1223       C  0.35032057  0.61759805  0.89565272     0.11600
C1224       C  0.38333541  0.62444475  0.89044458     0.22600
C1225       C  0.36736425  0.67568831  0.87919562    -0.52300
C1226       C  0.38645896  0.65860772  0.89516779     0.11700
C1227       C  0.36832864  0.63727021  0.84145470    -0.51800
C1228       C  0.38723378  0.62019182  0.85787530     0.12300
H1229       H  0.30720078  0.63216451  0.88055964     0.16800
H1230       H  0.39882075  0.61049413  0.90363412     0.02600
H1231       H  0.36712140  0.70019205  0.87986071     0.17100
H1232       H  0.36808783  0.63652259  0.81803877     0.16900
C1233       C  0.15491233  0.84158030  0.85713775     0.88700
C1234       C  0.16999516  0.86347045  0.87810960    -0.51500
C1235       C  0.15033223  0.88068504  0.89329599     0.11600
C1236       C  0.11760801  0.87432707  0.88657302     0.22600
C1237       C  0.13341821  0.82291520  0.87579663    -0.52300
C1238       C  0.11380377  0.84027409  0.89113748     0.11700
C1239       C  0.13475539  0.86164239  0.83820629    -0.51800
C1240       C  0.11533112  0.87881204  0.85392243     0.12300
H1241       H  0.19395324  0.86583685  0.88007127     0.16800
H1242       H  0.10176180  0.88848618  0.89915745     0.02600
H1243       H  0.13362614  0.79843041  0.87668234     0.17100
H1244       H  0.13624208  0.86274458  0.81484698     0.16900
C1245       C  0.15596074  0.65785300  0.84968820     0.88700
C1246       C  0.13394192  0.63608617  0.83543190    -0.51500
C1247       C  0.11738780  0.62039459  0.85488979     0.11600
C1248       C  0.12408634  0.62789618  0.88647642     0.22600
C1249       C  0.13689572  0.67808889  0.86943511    -0.52300
C1250       C  0.12025010  0.66219894  0.88871126     0.11700
C1251       C  0.17457650  0.63810920  0.87026971    -0.51800
C1252       C  0.15760670  0.62245288  0.88948699     0.12300
H1253       H  0.13196769  0.63302585  0.81226062     0.16800
H1254       H  0.11043184  0.61497998  0.90215645     0.02600
H1255       H  0.13657005  0.70256323  0.86824483     0.17100
H1256       H  0.19866601  0.63632646  0.86942605     0.16900
N1257       N  0.00240985  0.95427089  0.83573284    -0.34400
N1258       N  0.04860723  0.50004320  0.83508249    -0.55000
N1259       N  0.00238489  0.54637650  0.83807072    -0.34400
N1260       N  0.45620645  0.50060676  0.83562112    -0.55000
C1261       C  0.02651946  0.93691261  0.82995192     0.29200
C1262       C  0.47803960  0.93709673  0.83142666     0.29200
C1263       C  0.02670568  0.56373355  0.83424289     0.29200
C1264       C  0.47820376  0.56406259  0.83358472     0.29200
C1265       C  0.06596586  0.97532788  0.83849756     0.37800
C1266       C  0.06590854  0.52416096  0.84073271     0.37800
C1267       C  0.43902133  0.97620328  0.84055194     0.37800
C1268       C  0.43892027  0.52512509  0.84054045     0.37800
C1269       C  0.01733075  0.90828144  0.82191658    -0.19700
C1270       C  0.48675628  0.90838594  0.82289587    -0.19700
C1271       C  0.01787812  0.59292313  0.82744587    -0.19700
C1272       C  0.48729684  0.59311734  0.82698808    -0.19700
C1273       C  0.09467537  0.98380567  0.84572421    -0.20700
C1274       C  0.09463485  0.51475392  0.84717134    -0.20700
C1275       C  0.41046529  0.98526376  0.84801159    -0.20700
C1276       C  0.41038708  0.51625190  0.84794696    -0.20700
C1277       C  0.05648579  0.94530405  0.83427293    -0.16100
C1278       C  0.44836326  0.94590528  0.83718813    -0.16100
C1279       C  0.44827520  0.55537979  0.83767135    -0.16100
C1280       C  0.05649593  0.55455465  0.83881199    -0.16100
H1281       H  0.03123369  0.88908946  0.81651589     0.16800
H1282       H  0.47257480  0.88932096  0.81832396     0.16800
H1283       H  0.03199692  0.61221788  0.82363605     0.16800
H1284       H  0.47333994  0.61260215  0.82282244     0.16800
H1285       H  0.11366344  0.96923574  0.84955202     0.15100
H1286       H  0.11360283  0.52871577  0.85227056     0.15100
H1287       H  0.39163009  0.97105674  0.85293763     0.15100
H1288       H  0.39150372  0.53058306  0.85290914     0.15100
H1289       H  0.00263411  0.97514858  0.84581093     0.28400
H1290       H  0.00230743  0.52489647  0.84690410     0.28400
C1291       C  0.34800091  0.84266654  0.65675943     0.88700
C1292       C  0.32923595  0.86210370  0.63593370    -0.51500
C1293       C  0.34600167  0.87722977  0.61609326     0.11600
C1294       C  0.37953098  0.87176752  0.61887645     0.22600
C1295       C  0.36678029  0.82195349  0.63697904    -0.52300
C1296       C  0.38320844  0.83744220  0.61708356     0.11700
C1297       C  0.37041482  0.86464433  0.67019906    -0.51800
C1298       C  0.38680491  0.87984518  0.65022808     0.12300
H1299       H  0.30514783  0.86379828  0.63686381     0.16800
H1300       H  0.39299097  0.88431475  0.60276532     0.02600
H1301       H  0.36689923  0.79750404  0.63846871     0.17100
H1302       H  0.37284996  0.86810364  0.69327667     0.16900
C1303       C  0.15560434  0.84214749  0.64533138     0.88700
C1304       C  0.13573402  0.86233705  0.66443519    -0.51500
C1305       C  0.11616268  0.87951122  0.64890005     0.11600
C1306       C  0.11806180  0.87494971  0.61623847     0.22600
C1307       C  0.13380473  0.82352298  0.62693067    -0.52300
C1308       C  0.11404755  0.84091546  0.61178116     0.11700
C1309       C  0.17052794  0.86390842  0.62414395    -0.51800
C1310       C  0.15073097  0.88113207  0.60913331     0.12300
H1311       H  0.13741375  0.86340357  0.68778386     0.16800
H1312       H  0.10212397  0.88914111  0.60379805     0.02600
H1313       H  0.13390151  0.79903754  0.62609981     0.17100
H1314       H  0.19447051  0.86613709  0.62186303     0.16900
N1315       N  0.04162484  0.81208358  0.50167887    -0.34400
N1316       N  0.99556511  0.81067226  0.54597093    -0.55000
N1317       N  0.44936319  0.80711056  0.50141203    -0.34400
N1318       N  0.99569632  0.81089637  0.95713669    -0.55000
C1319       C  0.05809901  0.81894346  0.52525145     0.29200
C1320       C  0.05818539  0.81883947  0.97814608     0.29200
C1321       C  0.43248217  0.81314590  0.52501309     0.29200
C1322       C  0.43257490  0.81327571  0.97777299     0.29200
C1323       C  0.01979372  0.80960675  0.56331548     0.37800
C1324       C  0.47153483  0.80699064  0.56316317     0.37800
C1325       C  0.02001674  0.80946618  0.93995319     0.37800
C1326       C  0.47176595  0.80717402  0.93982272     0.37800
C1327       C  0.08574454  0.82932577  0.51652965    -0.19700
C1328       C  0.08579229  0.82927404  0.98692037    -0.19700
C1329       C  0.40433126  0.82225724  0.51620386    -0.19700
C1330       C  0.40438885  0.82232922  0.98650844    -0.19700
C1331       C  0.01111069  0.80499554  0.59164838    -0.20700
C1332       C  0.48060916  0.80330564  0.59155950    -0.20700
C1333       C  0.01148536  0.80462794  0.91160503    -0.20700
C1334       C  0.48098047  0.80316768  0.91151527    -0.20700
C1335       C  0.04930297  0.81567383  0.55444135    -0.16100
C1336       C  0.04950442  0.81538494  0.94894768    -0.16100
C1337       C  0.44178784  0.81087756  0.94853354    -0.16100
C1338       C  0.44158408  0.81063720  0.55428422    -0.16100
H1339       H  0.10402973  0.83643311  0.53006181     0.16800
H1340       H  0.10412351  0.83631617  0.97341896     0.18800
H1341       H  0.38572379  0.82862482  0.52975226     0.16800
H1342       H  0.38583962  0.82876896  0.97291510     0.16800
H1343       H  0.02522208  0.80385051  0.61053545     0.15100
H1344       H  0.46665357  0.80068136  0.61040689     0.15100
H1345       H  0.02571298  0.80313904  0.89282175     0.15100
H1346       H  0.46712329  0.80037774  0.89262005     0.15100
H1347       H  0.02127364  0.80119862  0.50163790     0.28400
H1348       H  0.47040070  0.79735409  0.50143886     0.28400
C1349       C  0.15537913  0.65824199  0.65267087     0.88700
C1350       C  0.17371706  0.63819045  0.63208900    -0.51500
C1351       C  0.15650727  0.62257962  0.61301419     0.11600
C1352       C  0.12307739  0.62836518  0.61614346     0.22600
C1353       C  0.13641019  0.67853831  0.63288574    -0.52300
C1354       C  0.11956227  0.66267622  0.61374258     0.11700
C1355       C  0.13321609  0.63673458  0.66710589    -0.51800
C1356       C  0.11646533  0.62106297  0.64777417     0.12300
H1357       H  0.19779243  0.63618448  0.63283318     0.16800
H1358       H  0.10924626  0.61549093  0.60057063     0.02600
H1359       H  0.13635748  0.70302241  0.63389978     0.17100
H1360       H  0.13139814  0.63371260  0.69029192     0.16900
N1361       N  0.00259709  0.95413734  0.66591781    -0.34400
N1362       N  0.45625518  0.50032888  0.66538170    -0.55000
N1363       N  0.00213776  0.54620323  0.66355808    -0.34400
N1364       N  0.04850045  0.50008782  0.66701442    -0.55000
C1365       C  0.47822870  0.93698889  0.67038091     0.29200
C1366       C  0.02670022  0.93698607  0.67231186     0.29200
C1367       C  0.47786332  0.56367449  0.66839963     0.29200
C1368       C  0.02634859  0.56351544  0.66816123     0.29200
C1369       C  0.43915872  0.97585539  0.66056770     0.37800
C1370       C  0.43883345  0.52476792  0.66058294     0.37800
C1371       C  0.06601342  0.97545368  0.66375716     0.37800
C1372       C  0.06571182  0.52427365  0.66139121     0.37800
C1373       C  0.48694840  0.90851092  0.67958795    -0.19700
C1374       C  0.01752173  0.90852294  0.68085073    -0.19700
C1375       C  0.48679101  0.59250431  0.67601372    -0.19700
C1376       C  0.01737645  0.59241466  0.67583029    -0.19700
C1377       C  0.41053430  0.98479242  0.65318849    -0.20700
C1378       C  0.41031141  0.51578497  0.65327239    -0.20700
C1379       C  0.09470881  0.98405247  0.65661814    -0.20700
C1380       C  0.09450377  0.51500536  0.65507151    -0.20700
C1381       C  0.44855531  0.94563778  0.66436389    -0.16100
C1382       C  0.05668040  0.94543001  0.66819395    -0.16100
C1383       C  0.05617920  0.55460016  0.66352265    -0.16100
C1384       C  0.44800798  0.55501443  0.66388929    -0.16100
H1385       H  0.47276915  0.88953968  0.68450436     0.16800
H1386       H  0.03143508  0.88953565  0.68684770     0.16800
H1387       H  0.47272559  0.61176473  0.68075086     0.16800
H1388       H  0.03141023  0.61158358  0.68044119     0.16800
H1389       H  0.39169609  0.97049969  0.64850299     0.15100
H1390       H  0.39131078  0.53004738  0.64855954     0.15100
H1391       H  0.11379951  0.96956721  0.65298347     0.15100
H1392       H  0.11343211  0.52906776  0.65010782     0.15100
H1393       H  0.00285576  0.97481439  0.65548409     0.28400
H1394       H  0.00223971  0.52504148  0.65403162     0.28400
N1395       N  0.17108624  0.95792906  0.50088993    -0.34400
N1396       N  0.17534142  0.50341504  0.95625858    -0.55000
N1397       N  0.17618811  0.54928159  0.50113447    -0.34400
N1398       N  0.17416182  0.50348897  0.54575848    -0.55000
C1399       C  0.17581001  0.94043127  0.97746974     0.29200
C1400       C  0.17563126  0.94047884  0.52437388     0.29200
C1401       C  0.18315037  0.56601966  0.97772388     0.29200
C1402       C  0.18240046  0.56602102  0.52476032     0.29200
C1403       C  0.16820975  0.97944216  0.93968714     0.37800
C1404       C  0.17131585  0.52818669  0.93974593     0.37800
C1405       C  0.16658397  0.97942135  0.56197319     0.37800
C1406       C  0.16915859  0.52817981  0.56214116     0.37800
C1407       C  0.18357020  0.91149079  0.98614420    -0.19700
C1408       C  0.18351199  0.91153091  0.51578967    -0.19700
C1409       C  0.19400977  0.59375679  0.98656490    -0.19700
C1410       C  0.19357096  0.59373881  0.51627328    -0.19700
C1411       C  0.16022675  0.98893136  0.91225508    -0.20700
C1412       C  0.16220078  0.51987205  0.91228056    -0.20700
C1413       C  0.15719002  0.98877834  0.58903528    -0.20700
C1414       C  0.15879515  0.51974637  0.58913793    -0.20700
C1415       C  0.17024990  0.94912132  0.94872969    -0.16100
C1416       C  0.16960820  0.94915518  0.55304083    -0.16100
C1417       C  0.17542880  0.55798996  0.55346030    -0.16100
C1418       C  0.17710261  0.55800000  0.94881591    -0.16100
H1419       H  0.18805115  0.89215533  0.97253117     0.16800
H1420       H  0.18788110  0.89221441  0.52945436     0.16800
H1421       H  0.20088231  0.61232580  0.97300076     0.16800
H1422       H  0.20000778  0.61230982  0.53004442     0.16800
H1423       H  0.15378991  0.97503502  0.89412259     0.15100
H1424       H  0.15754652  0.53452748  0.89414405     0.15100
H1425       H  0.15007020  0.97477383  0.60683938     0.15100
H1426       H  0.15315733  0.53433780  0.60706380     0.15100
H1427       H  0.16101501  0.97904887  0.50082953     0.28400
H1428       H  0.16390249  0.52952930  0.50092333     0.28400
N1429       N  0.00523819  0.69427109  0.54571123    -0.34400
N1430       N  0.45994969  0.69442731  0.50084476    -0.55000
N1431       N  0.00545408  0.69515300  0.95595992    -0.34400
N1432       N  0.05102268  0.69298449  0.50089881    -0.55000
C1433       C  0.48094126  0.68689005  0.56147168     0.29200
C1434       C  0.02946909  0.68728155  0.56176600     0.29200
C1435       C  0.48115060  0.68834411  0.93997402     0.29200
C1436       C  0.02969263  0.68844455  0.93979151     0.29200
C1437       C  0.44207780  0.69659606  0.52416406     0.37800
C1438       C  0.44220249  0.69709548  0.97749588     0.37800
C1439       C  0.06882204  0.69495704  0.52435745     0.37800
C1440       C  0.06894421  0.69502824  0.97752808     0.37800
C1441       C  0.48986453  0.67619510  0.58823987    -0.19700
C1442       C  0.02040979  0.67651801  0.58846502    -0.19700
C1443       C  0.49007399  0.67851245  0.91290069    -0.19700
C1444       C  0.02062693  0.67865341  0.91274964    -0.19700
C1445       C  0.41289228  0.70146058  0.51560718    -0.20700
C1446       C  0.41298056  0.70181317  0.98603108    -0.20700
C1447       C  0.09816367  0.69845010  0.51582074    -0.20700
C1448       C  0.09825167  0.69843317  0.98620651    -0.20700
C1449       C  0.45092702  0.68958993  0.55255514    -0.16100
C1450       C  0.05953847  0.69025059  0.55315989    -0.16100
C1451       C  0.05976818  0.69062393  0.94864743    -0.16100
C1452       C  0.45113394  0.69058760  0.94901703    -0.16100
H1453       H  0.47584734  0.66861930  0.60575329     0.16800
H1454       H  0.03433913  0.66911087  0.60616809     0.16800
H1455       H  0.47605127  0.67156196  0.89514996     0.16800
H1456       H  0.03454915  0.67170638  0.89487247     0.16800
H1457       H  0.39339618  0.70314905  0.52922103     0.15100
H1458       H  0.39354654  0.70380722  0.97236749     0.15100
H1459       H  0.11761568  0.69986824  0.52950081     0.15100
H1460       H  0.11776313  0.69991143  0.97261420     0.15100
H1461       H  0.00533406  0.70531263  0.52597170     0.28400
H1462       H  0.00552619  0.70541712  0.97607378     0.28400
C1463       C  0.34713859  0.65722643  0.64282702     0.88700
C1464       C  0.36836836  0.63740613  0.66094330    -0.51500
C1465       C  0.38707297  0.62017117  0.64444921     0.11600
C1466       C  0.38302896  0.62440459  0.61190750     0.22600
C1467       C  0.36744785  0.67577279  0.62312589    -0.52300
C1468       C  0.38633478  0.65851630  0.60706748     0.11700
C1469       C  0.33101764  0.63507896  0.62286159    -0.51800
C1470       C  0.34996812  0.61775581  0.60689156     0.12300
H1471       H  0.36822024  0.63666771  0.68435982     0.16800
H1472       H  0.39834311  0.61031501  0.59866122     0.02600
H1473       H  0.36732085  0.70027266  0.62237432     0.17100
H1474       H  0.30700039  0.63258865  0.62216708     0.16900
N1475       N  0.32650486  0.53916680  0.50135394    -0.34400
N1476       N  0.32417776  0.99367126  0.95645061    -0.55000
N1477       N  0.32514990  0.94750493  0.50137267    -0.34400
N1478       N  0.32485703  0.99361659  0.54623652    -0.55000
C1479       C  0.32129178  0.55651287  0.97794112     0.29200
C1480       C  0.32134492  0.55646358  0.52482374     0.29200
C1481       C  0.32009823  0.93021917  0.97778717     0.29200
C1482       C  0.32027452  0.93022597  0.52499084     0.29200
C1483       C  0.33064982  0.51801196  0.94006777     0.37800
C1484       C  0.32936408  0.96913931  0.93986453     0.37800
C1485       C  0.33136955  0.51797698  0.56256976     0.37800
C1486       C  0.33008816  0.96910050  0.56281115     0.37800
C1487       C  0.31235597  0.58510964  0.98659870    -0.19700
C1488       C  0.31227633  0.58504953  0.51624329    -0.19700
C1489       C  0.31196879  0.90149431  0.98653677    -0.19700
C1490       C  0.31200315  0.90152478  0.51628624    -0.19700
C1491       C  0.33920561  0.50899122  0.91266794    -0.20700
C1492       C  0.33839959  0.97801123  0.91252357    -0.20700
C1493       C  0.34019926  0.50897801  0.58989907    -0.20700
C1494       C  0.33926070  0.97798611  0.59010891    -0.20700
C1495       C  0.32785197  0.54823658  0.94930036    -0.16100
C1496       C  0.32810219  0.54817692  0.55342397    -0.16100
C1497       C  0.32567098  0.93891730  0.55396296    -0.16100
C1498       C  0.32526792  0.93892651  0.94878697    -0.16100
H1499       H  0.30724834  0.60426792  0.97296558     0.16800
H1500       H  0.30720640  0.60418664  0.52992189     0.16800
H1501       H  0.30709846  0.88232494  0.97290230     0.16800
H1502       H  0.30721383  0.88235647  0.52994338     0.16800
H1503       H  0.34544613  0.52321754  0.89470895     0.15100
H1504       H  0.34398541  0.96368309  0.89438865     0.15100
H1505       H  0.34646908  0.52322768  0.60783545     0.15100
H1506       H  0.34484934  0.96366700  0.60824618     0.15100
H1507       H  0.33763338  0.51860102  0.50129899     0.28400
H1508       H  0.33516446  0.96849223  0.50131741     0.28400
C1509       C  0.34007026  0.59323166  0.58903085    -0.11100
C1510       C  0.33353722  0.57228994  0.57377245    -0.12600
C1511       C  0.40862606  0.67133632  0.58842503    -0.11100
C1512       C  0.42779229  0.68090851  0.57272424    -0.12600
C1513       C  0.42579921  0.57874658  0.66116627    -0.11100
C1514       C  0.40786241  0.59830642  0.65579486    -0.12600
C1515       C  0.09995228  0.67643835  0.59284705    -0.11100
C1516       C  0.08227008  0.68450104  0.57478877    -0.12600
C1517       C  0.16787164  0.60107068  0.59244528    -0.11100
C1518       C  0.17313494  0.58179467  0.57479064    -0.12600
C1519       C  0.07809761  0.57817555  0.66038348    -0.11100
C1520       C  0.09564556  0.59806728  0.65591502    -0.12600
C1521       C  0.07168770  0.82148560  0.57651870    -0.11100
C1522       C  0.09104469  0.82884476  0.59323123    -0.12600
C1523       C  0.15956441  0.90498761  0.59007441    -0.11100
C1524       C  0.16508051  0.92543727  0.57392157    -0.12600
C1525       C  0.07877575  0.92155448  0.66647558    -0.11100
C1526       C  0.09636388  0.90170892  0.66112946    -0.12600
C1527       C  0.41942158  0.81583845  0.57678452    -0.11100
C1528       C  0.40229529  0.82351110  0.59561661    -0.12600
C1529       C  0.33408720  0.89728938  0.59438032    -0.11100
C1530       C  0.32841917  0.91548193  0.57574410    -0.12600
C1531       C  0.42655389  0.92199230  0.66163497    -0.11100
C1532       C  0.40843853  0.90246824  0.65758322    -0.12600
C1533       C  0.07857394  0.57793258  0.84222974    -0.11100
C1534       C  0.09635975  0.59756679  0.84683937    -0.12600
C1535       C  0.17488902  0.58192736  0.92763782    -0.11100
C1536       C  0.16933659  0.60116719  0.91005019    -0.12600
C1537       C  0.10040021  0.67598796  0.90939750    -0.11100
C1538       C  0.08257846  0.68438361  0.92720007    -0.12600
C1539       C  0.07196035  0.82091099  0.92691511    -0.11100
C1540       C  0.09115112  0.82816064  0.91001142    -0.12600
C1541       C  0.07840538  0.92131456  0.83641061    -0.11100
C1542       C  0.09569999  0.90124738  0.84186403    -0.12600
C1543       C  0.16526590  0.92537805  0.92792414    -0.11100
C1544       C  0.15936720  0.90478948  0.91202818    -0.12600
C1545       C  0.34052644  0.59315801  0.91371140    -0.11100
C1546       C  0.33370603  0.57233856  0.92902263    -0.12600
C1547       C  0.42613656  0.57912230  0.84073817    -0.11100
C1548       C  0.40815513  0.59854596  0.84638998    -0.12600
C1549       C  0.40887096  0.67171644  0.91346314    -0.11100
C1550       C  0.42806492  0.68166409  0.92890094    -0.12600
C1551       C  0.33422533  0.89729643  0.90846757    -0.11100
C1552       C  0.32831289  0.91545910  0.92706604    -0.12600
C1553       C  0.41973527  0.81610706  0.92592721    -0.11100
C1554       C  0.40266292  0.82377078  0.90703982    -0.12600
C1555       C  0.42636443  0.92231243  0.84042632    -0.11100
C1556       C  0.40834350  0.90278049  0.84485970    -0.12600
C1557       C  0.31624319  0.81132940  0.80713269    -0.11100
C1558       C  0.33027998  0.82626237  0.82430529    -0.12600
C1559       C  0.32662721  0.67568417  0.84254087    -0.11100
C1560       C  0.31125053  0.69173668  0.82768174    -0.12600
C1561       C  0.17659794  0.82346745  0.84068472    -0.11100
C1562       C  0.19462367  0.80869065  0.82737389    -0.12600
C1563       C  0.31621022  0.81135487  0.69579320    -0.11100
C1564       C  0.33019926  0.82624759  0.67856165    -0.12600
C1565       C  0.18793346  0.69072648  0.81273944    -0.11100
C1566       C  0.17377297  0.67494467  0.82882139    -0.12600
C1567       C  0.19523309  0.80909184  0.67506377    -0.11100
C1568       C  0.17735976  0.82397645  0.66166074    -0.12600
C1569       C  0.31152506  0.69200565  0.67502905    -0.11100
C1570       C  0.32686721  0.67603882  0.66004426    -0.12600
C1571       C  0.18783521  0.69095647  0.68947118    -0.11100
C1572       C  0.17347567  0.67528672  0.67341094    -0.12600
O1573       O  0.73181577  0.27125808  0.17894325    -0.77900
O1574       O  0.77292447  0.29186704  0.28562083    -0.77900
O1575       O  0.71428036  0.29135241  0.28305947    -0.78000
O1576       O  0.81433173  0.26627247  0.22199078    -0.77900
O1577       O  0.73161317  0.27120772  0.32378997    -0.78000
O1578       O  0.77293742  0.29184814  0.21731225    -0.77900
O1579       O  0.81427153  0.26620310  0.28103093    -0.77900
O1580       O  0.71432222  0.29149822  0.21957681    -0.78000
C1581       C  0.71440913  0.28962592  0.19166942     1.11800
C1582       C  0.80061854  0.28966841  0.28943342     1.11600
C1583       C  0.71411783  0.28940609  0.31095337     1.11800
C1584       C  0.80064312  0.28969885  0.21355460     1.11700
O1585       O  0.78302935  0.23464685  0.18807946    -0.77900
O1586       O  0.73172647  0.21493940  0.30000590    -0.78000
O1587       O  0.69149313  0.23055960  0.22261317    -0.77900
O1588       O  0.79757487  0.20333353  0.28083164    -0.77900
O1589       O  0.78288857  0.23453306  0.31476462    -0.78000
O1590       O  0.73176085  0.21488799  0.20264679    -0.77900
O1591       O  0.79771557  0.20339567  0.22195519    -0.77900
O1592       O  0.69151741  0.23035559  0.27970337    -0.78000
Co1593     Co  0.75044534  0.25374411  0.21182565     1.51500
Co1594     Co  0.75040435  0.25375999  0.29095203     1.51700
Co1595     Co  0.70933854  0.25898365  0.25126048     1.51600
Co1596     Co  0.80245331  0.23506282  0.25144741     1.51500
O1597       O  0.75640662  0.24092324  0.25137576    -1.39900
C1598       C  0.79628420  0.21056658  0.19569021     1.11700
C1599       C  0.70449149  0.21231565  0.29629929     1.11800
C1600       C  0.70446192  0.21243756  0.20609293     1.11700
C1601       C  0.79609800  0.21043209  0.30711115     1.11700
C1602       C  0.84812800  0.34276004  0.34603712     0.88700
C1603       C  0.87039242  0.36481608  0.33249980    -0.51500
C1604       C  0.88683391  0.38008999  0.35238466     0.11600
C1605       C  0.87974179  0.37199236  0.38378293     0.22600
C1606       C  0.86707275  0.32212042  0.36573300    -0.52300
C1607       C  0.88354189  0.33766896  0.38556290     0.11700
C1608       C  0.82939953  0.36212811  0.36694553    -0.51800
C1609       C  0.84619464  0.37732042  0.38671708     0.12300
H1610       H  0.87269336  0.36827621  0.30941043     0.16800
H1611       H  0.89322997  0.38459250  0.39983743     0.02600
H1612       H  0.86723488  0.29766909  0.36426300     0.17100
H1613       H  0.80530109  0.36372634  0.36612426     0.16900
C1614       C  0.84707016  0.15697252  0.35965863     0.88700
C1615       C  0.83118383  0.13476503  0.37972222    -0.51500
C1616       C  0.85029430  0.11758525  0.39565167     0.11600
C1617       C  0.88331262  0.12442470  0.39045844     0.22600
C1618       C  0.86735595  0.17567515  0.37922070    -0.52300
C1619       C  0.88644116  0.15858459  0.39519297     0.11700
C1620       C  0.86833015  0.13727164  0.34146703    -0.51800
C1621       C  0.88722448  0.12018278  0.35788965     0.12300
H1622       H  0.80718330  0.13216703  0.38054867     0.16800
H1623       H  0.89878946  0.11046647  0.40365007     0.02600
H1624       H  0.86712037  0.20017878  0.37989162     0.17100
H1625       H  0.86810130  0.13653511  0.31805071     0.16900
C1626       C  0.65490915  0.34157104  0.35714461     0.88700
C1627       C  0.66999169  0.36345589  0.37812087    -0.51500
C1628       C  0.65032863  0.38067480  0.39330198     0.11600
C1629       C  0.61760463  0.37432543  0.38657038     0.22600
C1630       C  0.63340615  0.32291031  0.37579653    -0.52300
C1631       C  0.61379206  0.34027304  0.39113289     0.11700
C1632       C  0.63476290  0.36163834  0.33820790    -0.51800
C1633       C  0.61533791  0.37881185  0.35391909     0.12300
H1634       H  0.69394988  0.36581603  0.38008909     0.16800
H1635       H  0.60175828  0.38848775  0.39915130     0.02600
H1636       H  0.63360950  0.29842549  0.37668278     0.17100
H1637       H  0.63625587  0.36273970  0.31484892     0.16900
C1638       C  0.65596013  0.15785317  0.34970073     0.88700
C1639       C  0.63393616  0.13609087  0.33544675    -0.51500
C1640       C  0.61737905  0.12040508  0.35490596     0.11600
C1641       C  0.62407931  0.12790748  0.38649195     0.22600
C1642       C  0.63690014  0.17809560  0.36944627    -0.52300
C1643       C  0.62025043  0.16221152  0.38872371     0.11700
C1644       C  0.67457163  0.13810624  0.37028308    -0.51800
C1645       C  0.65759860  0.12245543  0.38950189     0.12300
H1646       H  0.63196191  0.13302770  0.31227579     0.16800
H1647       H  0.61042185  0.11499553  0.40217277     0.02600
H1648       H  0.63657856  0.20256977  0.36825225     0.17100
H1649       H  0.69866050  0.13631530  0.36943710     0.16900
N1650       N  0.50241864  0.45426747  0.33571212    -0.34400
N1651       N  0.54861117  0.00005087  0.33508407    -0.55000
N1652       N  0.50238454  0.04638059  0.33807779    -0.34400
N1653       N  0.95621107  0.00060798  0.33561744    -0.55000
C1654       C  0.52652888  0.43690743  0.32993810     0.29200
C1655       C  0.97804796  0.43709234  0.33141585     0.29200
C1656       C  0.52670380  0.06373964  0.33425076     0.29200
C1657       C  0.97820352  0.06406597  0.33359492     0.29200
C1658       C  0.56597620  0.47532611  0.33847452     0.37800
C1659       C  0.56591097  0.02416989  0.34073338     0.37800
C1660       C  0.93902906  0.47620055  0.34054213     0.37800
C1661       C  0.93892354  0.02512410  0.34054337     0.37800
C1662       C  0.51734042  0.40827257  0.32191429    -0.19700
C1663       C  0.98676449  0.40837898  0.32289242    -0.19700
C1664       C  0.51787426  0.09292927  0.32745605    -0.19700
C1665       C  0.98729402  0.09312228  0.32700118    -0.19700
C1666       C  0.59468723  0.48380433  0.34569537    -0.20700
C1667       C  0.59464001  0.01476552  0.34716407    -0.20700
C1668       C  0.91047238  0.48525969  0.34800136    -0.20700
C1669       C  0.91039115  0.01624743  0.34794814    -0.20700
C1670       C  0.55649571  0.44530140  0.33425450    -0.16100
C1671       C  0.94837121  0.44590253  0.33717577    -0.16100
C1672       C  0.94827606  0.05538031  0.33768151    -0.16100
C1673       C  0.55649439  0.05456264  0.33881907    -0.16100
H1674       H  0.53124355  0.38907829  0.31652148     0.16800
H1675       H  0.97258293  0.38931256  0.31832633     0.16800
H1676       H  0.53199170  0.11222527  0.32364722     0.16800
H1677       H  0.97333553  0.11260658  0.32283836     0.16800
H1678       H  0.61367667  0.46923481  0.34951822     0.15100
H1679       H  0.61360770  0.02872901  0.35226009     0.15100
H1680       H  0.89163663  0.47105178  0.35292283     0.15100
H1681       H  0.89150733  0.03057625  0.35291452     0.15100
H1682       H  0.50264277  0.47514994  0.34578052     0.28400
H1683       H  0.50230880  0.02490025  0.34691060     0.28400
C1684       C  0.84800744  0.34265162  0.15676794     0.88700
C1685       C  0.82923672  0.36208693  0.13594530    -0.51500
C1686       C  0.84599698  0.37721432  0.11610134     0.11600
C1687       C  0.87952729  0.37175430  0.11887830     0.22600
C1688       C  0.86678483  0.32193944  0.13698475    -0.52300
C1689       C  0.88320804  0.33742896  0.11708577     0.11700
C1690       C  0.87042205  0.36463154  0.17020290    -0.51800
C1691       C  0.88680619  0.37983376  0.15022840     0.12300
H1692       H  0.80514877  0.36378055  0.13688097     0.16800
H1693       H  0.89298307  0.38430254  0.10276462     0.02600
H1694       H  0.86690705  0.29749009  0.13847603     0.17100
H1695       H  0.87286075  0.36809253  0.19327995     0.16900
C1696       C  0.65560781  0.34215378  0.14533522     0.88700
C1697       C  0.63572744  0.36233747  0.16443491    -0.51500
C1698       C  0.61615678  0.37950841  0.14889576     0.11600
C1699       C  0.61806562  0.37495007  0.11623454     0.22600
C1700       C  0.63381636  0.32352591  0.12692708    -0.52300
C1701       C  0.61405865  0.34091541  0.11177408     0.11700
C1702       C  0.67053202  0.36392049  0.12415296    -0.51800
C1703       C  0.65073527  0.38114077  0.10913796     0.12300
H1704       H  0.63740060  0.36340315  0.18778404     0.16800
H1705       H  0.60212793  0.38913917  0.10379154     0.02600
H1706       H  0.63391681  0.29904049  0.12609648     0.17100
H1707       H  0.69447465  0.36615517  0.12187861     0.16900
N1708       N  0.54162549  0.31208772  0.00167705    -0.34400
N1709       N  0.49556813  0.31066817  0.04596947    -0.55000
N1710       N  0.94936224  0.30709891  0.00141192    -0.34400
N1711       N  0.49568903  0.31089945  0.45713524    -0.55000
C1712       C  0.55809282  0.31896832  0.02524875     0.29200
C1713       C  0.55818807  0.31880855  0.47814250     0.29200
C1714       C  0.93247918  0.31312560  0.02501357     0.29200
C1715       C  0.93257189  0.31329495  0.47777415     0.29200
C1716       C  0.51979814  0.30959936  0.06331243     0.37800
C1717       C  0.97153662  0.30698159  0.06316165     0.37800
C1718       C  0.52000767  0.30947181  0.43994953     0.37800
C1719       C  0.97175877  0.30718507  0.43982123     0.37800
C1720       C  0.58572402  0.32938798  0.01652596    -0.19700
C1721       C  0.58581045  0.32920236  0.48691591    -0.19700
C1722       C  0.90432258  0.32221952  0.01620487    -0.19700
C1723       C  0.90439017  0.32236146  0.48651023    -0.19700
C1724       C  0.51111737  0.30497713  0.09164419    -0.20700
C1725       C  0.98061318  0.30328989  0.09155653    -0.20700
C1726       C  0.51147335  0.30464527  0.41160029    -0.20700
C1727       C  0.98097066  0.30318617  0.41151197    -0.20700
C1728       C  0.54930488  0.31567977  0.05443864    -0.16100
C1729       C  0.54949819  0.31537588  0.44894389    -0.16100
C1730       C  0.94178205  0.31089123  0.44853447    -0.16100
C1731       C  0.94158436  0.31062420  0.05428464    -0.16100
H1732       H  0.60400017  0.33652013  0.03005754     0.16800
H1733       H  0.60415128  0.33621828  0.47341414     0.18800
H1734       H  0.88571163  0.32857547  0.02975370     0.16800
H1735       H  0.88584343  0.32880976  0.47291731     0.16800
H1736       H  0.52523016  0.30382809  0.11053004     0.15100
H1737       H  0.96665885  0.30065879  0.11040390     0.15100
H1738       H  0.52569919  0.30316007  0.39281549     0.15100
H1739       H  0.96711198  0.30040321  0.39261683     0.15100
H1740       H  0.52128995  0.30117165  0.00163698     0.28400
H1741       H  0.97040598  0.29735618  0.00143839     0.28400
C1742       C  0.65537575  0.15824349  0.15268392     0.88700
C1743       C  0.67371881  0.13819268  0.13210552    -0.51500
C1744       C  0.65651327  0.12257728  0.11303052     0.11600
C1745       C  0.62308236  0.12835767  0.11615634     0.22600
C1746       C  0.63640578  0.17853457  0.13289501    -0.52300
C1747       C  0.61956245  0.16266761  0.11375191     0.11700
C1748       C  0.63321395  0.13673406  0.16711904    -0.51800
C1749       C  0.61646729  0.12105788  0.14778687     0.12300
H1750       H  0.69779457  0.13619220  0.13285075     0.16800
H1751       H  0.60925482  0.11548000  0.10058308     0.02600
H1752       H  0.63634927  0.20301882  0.13390631     0.17100
H1753       H  0.63139244  0.13371583  0.19030522     0.16900
N1754       N  0.50258711  0.45413470  0.16590038    -0.34400
N1755       N  0.95624811  0.00032647  0.16537496    -0.55000
N1756       N  0.50213051  0.04620144  0.16355680    -0.34400
N1757       N  0.54849146  0.00008745  0.16700505    -0.55000
C1758       C  0.97822011  0.43698842  0.17037234     0.29200
C1759       C  0.52668903  0.43698465  0.17230105     0.29200
C1760       C  0.97785687  0.06366831  0.16840889     0.29200
C1761       C  0.52634149  0.06351229  0.16816488     0.29200
C1762       C  0.93915345  0.47585476  0.16055560     0.37800
C1763       C  0.93882852  0.02476606  0.16057245     0.37800
C1764       C  0.56600159  0.47544681  0.16373171     0.37800
C1765       C  0.56570213  0.02427285  0.16137862     0.37800
C1766       C  0.98693844  0.40851350  0.17958899    -0.19700
C1767       C  0.51750943  0.40852596  0.18085210    -0.19700
C1768       C  0.98678507  0.09249394  0.17603683    -0.19700
C1769       C  0.51736953  0.09240795  0.17584597    -0.19700
C1770       C  0.91053086  0.48479451  0.15317290    -0.20700
C1771       C  0.91031019  0.01578422  0.15324660    -0.20700
C1772       C  0.59469408  0.48404338  0.15657951    -0.20700
C1773       C  0.59449189  0.01500393  0.15505033    -0.20700
C1774       C  0.94854769  0.44563691  0.16435287    -0.16100
C1775       C  0.55666868  0.44542486  0.16817660    -0.16100
C1776       C  0.55617170  0.05459906  0.16352002    -0.16100
C1777       C  0.94800197  0.05501130  0.16389081    -0.16100
H1778       H  0.97275823  0.38954505  0.18451270     0.16800
H1779       H  0.53142204  0.38954074  0.18685660     0.16800
H1780       H  0.97271975  0.11175183  0.18078367     0.16800
H1781       H  0.53140348  0.11157511  0.18046303     0.16800
H1782       H  0.89169277  0.47050345  0.14848178     0.15100
H1783       H  0.89131188  0.03004742  0.14852678     0.15100
H1784       H  0.61378151  0.46955645  0.15293507     0.15100
H1785       H  0.61341942  0.02906601  0.15008294     0.15100
H1786       H  0.50284671  0.47480697  0.15545721     0.28400
H1787       H  0.50223168  0.02504380  0.15402146     0.28400
N1788       N  0.67108673  0.45793906  0.00089029    -0.34400
N1789       N  0.67533664  0.00340349  0.45625917    -0.55000
N1790       N  0.67618213  0.04929535  0.00113740    -0.34400
N1791       N  0.67416115  0.00349628  0.04576107    -0.55000
C1792       C  0.67582358  0.44042262  0.47747061     0.29200
C1793       C  0.67561917  0.44048585  0.02437489     0.29200
C1794       C  0.68315922  0.06600188  0.47772363     0.29200
C1795       C  0.68238780  0.06603706  0.02476378     0.29200
C1796       C  0.66820588  0.47942934  0.43968998     0.37800
C1797       C  0.67130086  0.02817541  0.43974955     0.37800
C1798       C  0.66659297  0.47943350  0.06197788     0.37800
C1799       C  0.66917205  0.02818650  0.06214906     0.37800
C1800       C  0.68359377  0.41148522  0.48614595    -0.19700
C1801       C  0.68347827  0.41153202  0.01579037    -0.19700
C1802       C  0.69402790  0.09373524  0.48656440    -0.19700
C1803       C  0.69354027  0.09376243  0.01627649    -0.19700
C1804       C  0.66020499  0.48891881  0.41226286    -0.20700
C1805       C  0.66216603  0.01986204  0.41229006    -0.20700
C1806       C  0.65721429  0.48879009  0.08904509    -0.20700
C1807       C  0.65882945  0.01975108  0.08915294    -0.20700
C1808       C  0.67025395  0.44910938  0.44873198    -0.16100
C1809       C  0.66960762  0.44916631  0.05304381    -0.16100
C1810       C  0.67543208  0.05799892  0.05346623    -0.16100
C1811       C  0.67709809  0.05798697  0.44881731    -0.16100
H1812       H  0.68807882  0.39215025  0.47253351     0.16800
H1813       H  0.68783369  0.39221215  0.02945469     0.16800
H1814       H  0.70090267  0.11230319  0.47300002     0.16800
H1815       H  0.69996912  0.11233639  0.03004758     0.16800
H1816       H  0.65375603  0.47502255  0.39413439     0.15100
H1817       H  0.65750022  0.03451838  0.39415700     0.15100
H1818       H  0.65010456  0.47478540  0.10685286     0.15100
H1819       H  0.65320609  0.03434099  0.10708416     0.15100
H1820       H  0.66103287  0.47906663  0.00082971     0.28400
H1821       H  0.66391124  0.02953447  0.00092649     0.28400
N1822       N  0.50524358  0.19426338  0.04571126    -0.34400
N1823       N  0.95995570  0.19442386  0.00084521    -0.55000
N1824       N  0.50544355  0.19516195  0.45595894    -0.34400
N1825       N  0.55102954  0.19296830  0.00090023    -0.55000
C1826       C  0.98094540  0.18688886  0.06147245     0.29200
C1827       C  0.52947286  0.18726763  0.06176603     0.29200
C1828       C  0.98114048  0.18834156  0.43997735     0.29200
C1829       C  0.52968299  0.18845423  0.43979164     0.29200
C1830       C  0.94208557  0.19660871  0.02416498     0.37800
C1831       C  0.94219175  0.19708737  0.47749941     0.37800
C1832       C  0.56882956  0.19493230  0.02435892     0.37800
C1833       C  0.56893186  0.19505817  0.47752640     0.37800
C1834       C  0.98986601  0.17618853  0.08823952    -0.19700
C1835       C  0.52041087  0.17650506  0.08846452    -0.19700
C1836       C  0.99006485  0.17850480  0.41290603    -0.19700
C1837       C  0.52061890  0.17865213  0.41275296    -0.19700
C1838       C  0.91290366  0.20149379  0.01560736    -0.20700
C1839       C  0.91296667  0.20178390  0.48603544    -0.20700
C1840       C  0.59817320  0.19841087  0.01582266    -0.20700
C1841       C  0.59823732  0.19848186  0.48620362    -0.20700
C1842       C  0.95093132  0.18960350  0.05255807    -0.16100
C1843       C  0.55954319  0.19023111  0.05316111    -0.16100
C1844       C  0.55975788  0.19064470  0.44864646    -0.16100
C1845       C  0.95112434  0.19057577  0.44902260    -0.16100
H1846       H  0.97584687  0.16861637  0.10575288     0.16800
H1847       H  0.53433846  0.16909380  0.10616735     0.16800
H1848       H  0.97604286  0.17154459  0.39515824     0.16800
H1849       H  0.53454235  0.17170277  0.39487752     0.16800
H1850       H  0.89340927  0.20320029  0.02922155     0.15100
H1851       H  0.89352997  0.20376008  0.47237313     0.15100
H1852       H  0.61762596  0.19981857  0.02950283     0.15100
H1853       H  0.61774705  0.19997259  0.47261035     0.15100
H1854       H  0.50534201  0.20530636  0.02597252     0.28400
H1855       H  0.50551414  0.20543252  0.47606986     0.28400
C1856       C  0.84713826  0.15722942  0.14283600     0.88700
C1857       C  0.86836600  0.13740470  0.16094971    -0.51500
C1858       C  0.88707768  0.12017952  0.14445403     0.11600
C1859       C  0.88304139  0.12442500  0.11191245     0.22600
C1860       C  0.86745014  0.17578694  0.12314615    -0.52300
C1861       C  0.88634316  0.15854001  0.10708432     0.11700
C1862       C  0.83102595  0.13508658  0.12285845    -0.51800
C1863       C  0.84998249  0.11777060  0.10688731     0.12300
H1864       H  0.86821002  0.13665461  0.18436587     0.16800
H1865       H  0.89836101  0.11034263  0.09866522     0.02600
H1866       H  0.86731773  0.20028707  0.12240213     0.17100
H1867       H  0.80700956  0.13258941  0.12216133     0.16900
N1868       N  0.82652272  0.03916930  0.00135620    -0.34400
N1869       N  0.82419187  0.49367464  0.45645378    -0.55000
N1870       N  0.82514610  0.44749032  0.00137375    -0.34400
N1871       N  0.82484299  0.49361168  0.04624356    -0.55000
C1872       C  0.82122965  0.05650151  0.47793907     0.29200
C1873       C  0.82138296  0.05647371  0.02482614     0.29200
C1874       C  0.82006713  0.43024322  0.47778979     0.29200
C1875       C  0.82031964  0.43019572  0.02499235     0.29200
C1876       C  0.83070182  0.01801423  0.44008912     0.37800
C1877       C  0.82942974  0.46914262  0.43988406     0.37800
C1878       C  0.83130093  0.01797347  0.06259488     0.37800
C1879       C  0.83000945  0.46909475  0.06283733     0.37800
C1880       C  0.81224811  0.08508414  0.48659624    -0.19700
C1881       C  0.81235826  0.08507310  0.01624434    -0.19700
C1882       C  0.81186360  0.40154030  0.48653839    -0.19700
C1883       C  0.81214136  0.40146754  0.01628435    -0.19700
C1884       C  0.83937919  0.00899220  0.41272522    -0.20700
C1885       C  0.83854545  0.47801071  0.41256751    -0.20700
C1886       C  0.84002495  0.00897515  0.08995587    -0.20700
C1887       C  0.83908191  0.47798335  0.09016635    -0.20700
C1888       C  0.82783115  0.04823590  0.44930541    -0.16100
C1889       C  0.82809918  0.04817699  0.05343377    -0.16100
C1890       C  0.82565381  0.43890428  0.05397334    -0.16100
C1891       C  0.82528491  0.43893589  0.44879596    -0.16100
H1892       H  0.80711809  0.10423577  0.47296233     0.16800
H1893       H  0.80730615  0.10421581  0.02992186     0.16800
H1894       H  0.80695109  0.38238311  0.47290284     0.16800
H1895       H  0.80740393  0.38228356  0.02993880     0.16800
H1896       H  0.84568710  0.02321848  0.39478867     0.15100
H1897       H  0.84418524  0.46367971  0.39445018     0.15100
H1898       H  0.84623514  0.02322458  0.10791225     0.15100
H1899       H  0.84460392  0.46366679  0.10832440     0.15100
H1900       H  0.83761752  0.01858700  0.00130187     0.28400
H1901       H  0.83507900  0.46851408  0.00132031     0.28400
C1902       C  0.84009060  0.09323704  0.08903208    -0.11100
C1903       C  0.83354928  0.07228938  0.07378255    -0.12600
C1904       C  0.90862989  0.17136996  0.08844016    -0.11100
C1905       C  0.92779325  0.18093829  0.07273226    -0.12600
C1906       C  0.92579502  0.07874517  0.16116905    -0.11100
C1907       C  0.90786209  0.09830871  0.15579786    -0.12600
C1908       C  0.59995327  0.17642398  0.09285288    -0.11100
C1909       C  0.58227244  0.18448266  0.07479209    -0.12600
C1910       C  0.66788229  0.10107287  0.09245961    -0.11100
C1911       C  0.67314413  0.08180058  0.07480076    -0.12600
C1912       C  0.57809181  0.07817446  0.16038851    -0.11100
C1913       C  0.59564383  0.09806437  0.15592612    -0.12600
C1914       C  0.57169323  0.32148715  0.07651484    -0.11100
C1915       C  0.59105469  0.32884284  0.09322484    -0.12600
C1916       C  0.65956794  0.40499957  0.09008125    -0.11100
C1917       C  0.66508202  0.42544967  0.07392756    -0.12600
C1918       C  0.57876253  0.42154814  0.16646237    -0.11100
C1919       C  0.59635201  0.40170273  0.16112090    -0.12600
C1920       C  0.91942263  0.31582552  0.07678633    -0.11100
C1921       C  0.90229583  0.32349867  0.09561828    -0.12600
C1922       C  0.83407686  0.39727657  0.09439262    -0.11100
C1923       C  0.82840512  0.41547043  0.07575792    -0.12600
C1924       C  0.92654636  0.42199146  0.16162634    -0.11100
C1925       C  0.90843487  0.40246302  0.15757861    -0.12600
C1926       C  0.57856867  0.07794226  0.34224278    -0.11100
C1927       C  0.59635135  0.09757775  0.34685633    -0.12600
C1928       C  0.67487854  0.08191690  0.42764242    -0.11100
C1929       C  0.66932436  0.10116186  0.41006024    -0.12600
C1930       C  0.60039682  0.17600673  0.40940341    -0.11100
C1931       C  0.58257068  0.18440488  0.42720110    -0.12600
C1932       C  0.57195038  0.32090802  0.42691005    -0.11100
C1933       C  0.59113806  0.32816217  0.41000555    -0.12600
C1934       C  0.57841633  0.42131307  0.33639600    -0.11100
C1935       C  0.59571101  0.40124754  0.34185484    -0.12600
C1936       C  0.66526632  0.42536506  0.42792966    -0.11100
C1937       C  0.65936488  0.40477679  0.41203511    -0.12600
C1938       C  0.84048899  0.09315412  0.41371245    -0.11100
C1939       C  0.83367230  0.07233978  0.42902969    -0.12600
C1940       C  0.92613557  0.07912052  0.34075323    -0.11100
C1941       C  0.90815114  0.09854114  0.34640594    -0.12600
C1942       C  0.90885861  0.17168340  0.41348560    -0.11100
C1943       C  0.92805714  0.18163540  0.42891379    -0.12600
C1944       C  0.83423588  0.39730684  0.40847750    -0.11100
C1945       C  0.82832679  0.41546651  0.42707885    -0.12600
C1946       C  0.91972881  0.31612013  0.42592934    -0.11100
C1947       C  0.90265854  0.32378267  0.40704024    -0.12600
C1948       C  0.92637094  0.42231064  0.34041332    -0.11100
C1949       C  0.90834604  0.40278291  0.34484915    -0.12600
C1950       C  0.81622851  0.31133741  0.30714747    -0.11100
C1951       C  0.83026576  0.32627480  0.32431612    -0.12600
C1952       C  0.82663408  0.17569230  0.34255320    -0.11100
C1953       C  0.81125655  0.19174679  0.32769821    -0.12600
C1954       C  0.67659399  0.32345387  0.34069850    -0.11100
C1955       C  0.69461942  0.30867466  0.32739180    -0.12600
C1956       C  0.81622096  0.31134552  0.19580891    -0.11100
C1957       C  0.83021042  0.32623366  0.17857422    -0.12600
C1958       C  0.68793498  0.19071517  0.31274499    -0.11100
C1959       C  0.67377475  0.17493739  0.32883058    -0.12600
C1960       C  0.69523625  0.30910537  0.17507996    -0.11100
C1961       C  0.67736346  0.32398669  0.16167126    -0.12600
C1962       C  0.81151819  0.19199577  0.17504684    -0.11100
C1963       C  0.82686004  0.17603187  0.16005779    -0.12600
C1964       C  0.68782815  0.19096789  0.18947968    -0.11100
C1965       C  0.67346862  0.17529451  0.17342253    -0.12600
O1966       O  0.73181029  0.27125048  0.67892801    -0.77900
O1967       O  0.77293168  0.29186737  0.78560274    -0.77900
O1968       O  0.71427959  0.29135519  0.78304477    -0.78000
O1969       O  0.81432795  0.26627698  0.72197089    -0.77900
O1970       O  0.73161953  0.27121511  0.82377471    -0.78000
O1971       O  0.77293073  0.29184829  0.71729455    -0.77900
O1972       O  0.81427679  0.26620055  0.78101097    -0.77900
O1973       O  0.71432262  0.29149440  0.71956200    -0.78000
C1974       C  0.71440522  0.28961897  0.69165509     1.11800
C1975       C  0.80062591  0.28966621  0.78941480     1.11600
C1976       C  0.71412221  0.28941271  0.81093928     1.11800
C1977       C  0.80063640  0.28970270  0.71353650     1.11700
O1978       O  0.78302828  0.23464934  0.68806118    -0.77900
O1979       O  0.73172604  0.21494414  0.79999532    -0.78000
O1980       O  0.69149618  0.23055530  0.72260071    -0.77900
O1981       O  0.79758114  0.20333303  0.78081267    -0.77900
O1982       O  0.78289203  0.23453165  0.81474638    -0.78000
O1983       O  0.73176436  0.21488244  0.70263568    -0.77900
O1984       O  0.79771358  0.20339758  0.72193586    -0.77900
O1985       O  0.69151709  0.23035755  0.77969107    -0.78000
Co1986     Co  0.75044380  0.25374108  0.71181042     1.51500
Co1987     Co  0.75040761  0.25376281  0.79093682     1.51700
Co1988     Co  0.70933932  0.25898283  0.75124692     1.51600
Co1989     Co  0.80245466  0.23506358  0.75142778     1.51500
O1990       O  0.75640773  0.24092311  0.75136141    -1.39900
C1991       C  0.79628445  0.21056997  0.69567149     1.11700
C1992       C  0.70449082  0.21231983  0.79628914     1.11800
C1993       C  0.70446571  0.21243190  0.70608206     1.11700
C1994       C  0.79610086  0.21043004  0.80709282     1.11700
C1995       C  0.84813664  0.34274605  0.84602819     0.88700
C1996       C  0.87040190  0.36480506  0.83249666    -0.51500
C1997       C  0.88683793  0.38007890  0.85238588     0.11600
C1998       C  0.87974120  0.37197726  0.88378219     0.22600
C1999       C  0.86707961  0.32210580  0.86572555    -0.52300
C2000       C  0.88354428  0.33765361  0.88555991     0.11700
C2001       C  0.82940308  0.36211134  0.86693487    -0.51800
C2002       C  0.84619317  0.37730374  0.88671045     0.12300
H2003       H  0.87270561  0.36826897  0.80940807     0.16800
H2004       H  0.89322545  0.38457732  0.89983981     0.02600
H2005       H  0.86724463  0.29765467  0.86425249     0.17100
H2006       H  0.80530487  0.36370993  0.86610772     0.16900
C2007       C  0.84706805  0.15697546  0.85965227     0.88700
C2008       C  0.83118661  0.13477126  0.87972377    -0.51500
C2009       C  0.85030095  0.11759458  0.89565276     0.11600
C2010       C  0.88331802  0.12443537  0.89045199     0.22600
C2011       C  0.86735769  0.17568316  0.87920706    -0.52300
C2012       C  0.88644647  0.15859674  0.89518012     0.11700
C2013       C  0.86832446  0.13727110  0.84146096    -0.51800
C2014       C  0.88722273  0.12018681  0.85788304     0.12300
H2015       H  0.80718651  0.13217076  0.88055337     0.16800
H2016       H  0.89879817  0.11048015  0.90364284     0.02600
H2017       H  0.86712016  0.20018686  0.87987421     0.17100
H2018       H  0.86808975  0.13652816  0.81804484     0.16900
C2019       C  0.65491714  0.34157709  0.85714207     0.88700
C2020       C  0.66999882  0.36347143  0.87811068    -0.51500
C2021       C  0.65033485  0.38068681  0.89329503     0.11600
C2022       C  0.61761095  0.37432539  0.88657312     0.22600
C2023       C  0.63342479  0.32291316  0.87580342    -0.52300
C2024       C  0.61380907  0.34027272  0.89114160     0.11700
C2025       C  0.63475854  0.36163477  0.83820799    -0.51800
C2026       C  0.61533332  0.37880542  0.85392199     0.12300
H2027       H  0.69395676  0.36583932  0.88007218     0.16800
H2028       H  0.60176373  0.38848498  0.89915585     0.02600
H2029       H  0.63363377  0.29842845  0.87669156     0.17100
H2030       H  0.63624490  0.36273354  0.81484851     0.16900
C2031       C  0.65595835  0.15785349  0.84968939     0.88700
C2032       C  0.63393704  0.13608793  0.83543522    -0.51500
C2033       C  0.61738230  0.12039916  0.85489454     0.11600
C2034       C  0.62408254  0.12790174  0.88648048     0.22600
C2035       C  0.63689539  0.17809235  0.86943593    -0.52300
C2036       C  0.62024871  0.16220488  0.88871348     0.11700
C2037       C  0.67457294  0.13810898  0.87027146    -0.51800
C2038       C  0.65760255  0.12245529  0.88949033     0.12300
H2039       H  0.63196172  0.13302620  0.81226418     0.16800
H2040       H  0.61042735  0.11498751  0.90216143     0.02600
H2041       H  0.63657088  0.20256657  0.86824347     0.17100
H2042       H  0.69866221  0.13632335  0.86942657     0.16900
N2043       N  0.50241484  0.45426844  0.83574038    -0.34400
N2044       N  0.54860305  0.00004877  0.83508850    -0.55000
N2045       N  0.50237903  0.04637923  0.83807540    -0.34400
N2046       N  0.95619876  0.00060561  0.83561138    -0.55000
C2047       C  0.52652203  0.43690909  0.82995251     0.29200
C2048       C  0.97804036  0.43709535  0.83142870     0.29200
C2049       C  0.52669916  0.06373770  0.83424973     0.29200
C2050       C  0.97819348  0.06406419  0.83358972     0.29200
C2051       C  0.56597103  0.47532024  0.83849525     0.37800
C2052       C  0.56590347  0.02416693  0.84073943     0.37800
C2053       C  0.93902416  0.47620373  0.84055606     0.37800
C2054       C  0.93891096  0.02512248  0.84053229     0.37800
C2055       C  0.51733008  0.40828053  0.82191278    -0.19700
C2056       C  0.98675514  0.40838472  0.82289549    -0.19700
C2057       C  0.51787082  0.09292669  0.82745143    -0.19700
C2058       C  0.98728474  0.09312079  0.82699800    -0.19700
C2059       C  0.59468018  0.48379637  0.84572461    -0.20700
C2060       C  0.59463079  0.01476099  0.84717518    -0.20700
C2061       C  0.91046851  0.48526564  0.84801566    -0.20700
C2062       C  0.91037700  0.01624698  0.84793325    -0.20700
C2063       C  0.55648922  0.44529723  0.83427123    -0.16100
C2064       C  0.94836447  0.44590531  0.83719074    -0.16100
C2065       C  0.94826526  0.05537831  0.83767175    -0.16100
C2066       C  0.55648939  0.05456010  0.83882018    -0.16100
H2067       H  0.53123083  0.38908877  0.81650614     0.16800
H2068       H  0.97257239  0.38932107  0.81832223     0.16800
H2069       H  0.53198899  0.11222210  0.82364239     0.16800
H2070       H  0.97332666  0.11260494  0.82283323     0.16800
H2071       H  0.61366664  0.46922528  0.84955587     0.15100
H2072       H  0.61359853  0.02872350  0.85227358     0.15100
H2073       H  0.89163260  0.47105950  0.85294152     0.15100
H2074       H  0.89149259  0.03057662  0.85289550     0.15100
H2075       H  0.50264210  0.47514375  0.84582282     0.28400
H2076       H  0.50230156  0.02489960  0.84690942     0.28400
C2077       C  0.84799731  0.34266889  0.65675927     0.88700
C2078       C  0.82923038  0.36210704  0.63593607    -0.51500
C2079       C  0.84599446  0.37723414  0.61609507     0.11600
C2080       C  0.87952409  0.37177224  0.61887559     0.22600
C2081       C  0.86677525  0.32195717  0.63697649    -0.52300
C2082       C  0.88320193  0.33744712  0.61708089     0.11700
C2083       C  0.87041212  0.36464589  0.67019845    -0.51800
C2084       C  0.88680045  0.37984800  0.65022711     0.12300
H2085       H  0.80514228  0.36380094  0.63686774     0.16800
H2086       H  0.89298280  0.38432048  0.60276416     0.02600
H2087       H  0.86689529  0.29750767  0.63846551     0.17100
H2088       H  0.87284956  0.36810331  0.69327609     0.16900
C2089       C  0.65560180  0.34214879  0.64533003     0.88700
C2090       C  0.63573055  0.36234055  0.66443085    -0.51500
C2091       C  0.61616066  0.37951409  0.64889330     0.11600
C2092       C  0.61806242  0.37495034  0.61623207     0.22600
C2093       C  0.63380260  0.32352374  0.62692877    -0.52300
C2094       C  0.61404689  0.34091581  0.61177653     0.11700
C2095       C  0.67052770  0.36390758  0.62414230    -0.51800
C2096       C  0.65073259  0.38113101  0.60912924     0.12300
H2097       H  0.63740798  0.36340817  0.68777961     0.16800
H2098       H  0.60212617  0.38914167  0.60378970     0.02600
H2099       H  0.63389811  0.29903823  0.62610018     0.17100
H2100       H  0.69447055  0.36613583  0.62186369     0.16900
N2101       N  0.54161620  0.31208351  0.50167627    -0.34400
N2102       N  0.49555816  0.31067460  0.54597122    -0.55000
N2103       N  0.94935805  0.30711194  0.50141230    -0.34400
N2104       N  0.49569923  0.31089485  0.95713627    -0.55000
C2105       C  0.55809707  0.31892883  0.52524843     0.29200
C2106       C  0.55818438  0.31884788  0.97814398     0.29200
C2107       C  0.93247846  0.31315064  0.52501350     0.29200
C2108       C  0.93257246  0.31327074  0.97777349     0.29200
C2109       C  0.51978735  0.30961237  0.56331540     0.37800
C2110       C  0.97153200  0.30699694  0.56316281     0.37800
C2111       C  0.52001947  0.30946053  0.93995289     0.37800
C2112       C  0.97176337  0.30717177  0.93982189     0.37800
C2113       C  0.58575235  0.32928329  0.51652496    -0.19700
C2114       C  0.58578253  0.32930687  0.98691704    -0.19700
C2115       C  0.90432850  0.32226558  0.51620483    -0.19700
C2116       C  0.90438414  0.32231598  0.98650992    -0.19700
C2117       C  0.51110456  0.30500511  0.59164903    -0.20700
C2118       C  0.98060709  0.30331362  0.59155907    -0.20700
C2119       C  0.51148795  0.30462081  0.91160507    -0.20700
C2120       C  0.98097717  0.30316503  0.91151420    -0.20700
C2121       C  0.54929819  0.31567187  0.55443946    -0.16100
C2122       C  0.54950616  0.31538370  0.94894646    -0.16100
C2123       C  0.94178525  0.31087486  0.94853348    -0.16100
C2124       C  0.94158095  0.31064250  0.55428434    -0.16100
H2125       H  0.60404550  0.33637205  0.53005599     0.16800
H2126       H  0.60410676  0.33636609  0.97341493     0.18800
H2127       H  0.88572243  0.32863686  0.52975349     0.16800
H2128       H  0.88583243  0.32874958  0.97291713     0.16800
H2129       H  0.52521626  0.30386176  0.61053594     0.15100
H2130       H  0.96665201  0.30068911  0.61040678     0.15100
H2131       H  0.52571559  0.30313009  0.89282193     0.15100
H2132       H  0.96711951  0.30037616  0.89261917     0.15100
H2133       H  0.52125381  0.30122102  0.50163650     0.28400
H2134       H  0.97039404  0.29735235  0.50143881     0.28400
C2135       C  0.65537913  0.15824424  0.65267061     0.88700
C2136       C  0.67371773  0.13819007  0.63209163    -0.51500
C2137       C  0.65650841  0.12257797  0.61301736     0.11600
C2138       C  0.62307860  0.12836504  0.61614429     0.22600
C2139       C  0.63641232  0.17853925  0.63288283    -0.52300
C2140       C  0.61956499  0.16267596  0.61374042     0.11700
C2141       C  0.63321452  0.13673913  0.66710650    -0.51800
C2142       C  0.61646451  0.12106608  0.64777525     0.12300
H2143       H  0.69779303  0.13618371  0.63283704     0.16800
H2144       H  0.60924789  0.11548987  0.60057181     0.02600
H2145       H  0.63636010  0.20302346  0.63389487     0.17100
H2146       H  0.63139520  0.13371942  0.69029270     0.16900
N2147       N  0.50259024  0.45413638  0.66592863    -0.34400
N2148       N  0.95626154  0.00033032  0.66537052    -0.55000
N2149       N  0.50213770  0.04620491  0.66355544    -0.34400
N2150       N  0.54850132  0.00008997  0.66701129    -0.55000
C2151       C  0.97822646  0.43698746  0.67038386     0.29200
C2152       C  0.52669456  0.43698427  0.67231626     0.29200
C2153       C  0.97786846  0.06367350  0.66840099     0.29200
C2154       C  0.52634805  0.06351731  0.66816015     0.29200
C2155       C  0.93915697  0.47585481  0.66057230     0.37800
C2156       C  0.93884132  0.02476950  0.66056730     0.37800
C2157       C  0.56600779  0.47545371  0.66376155     0.37800
C2158       C  0.56571247  0.02427648  0.66139013     0.37800
C2159       C  0.98694577  0.40850905  0.67958992    -0.19700
C2160       C  0.51751737  0.40851902  0.68085039    -0.19700
C2161       C  0.98679611  0.09250111  0.67602268    -0.19700
C2162       C  0.51737511  0.09241624  0.67582947    -0.19700
C2163       C  0.91053192  0.48479265  0.65319621    -0.20700
C2164       C  0.91032290  0.01578678  0.65324329    -0.20700
C2165       C  0.59470359  0.48405224  0.65662343    -0.20700
C2166       C  0.59450514  0.01500908  0.65507211    -0.20700
C2167       C  0.94855338  0.44563696  0.66436655    -0.16100
C2168       C  0.55667435  0.44542935  0.66819568    -0.16100
C2169       C  0.55617903  0.05460273  0.66352245    -0.16100
C2170       C  0.94801385  0.05501539  0.66388335    -0.16100
H2171       H  0.97276626  0.38953767  0.68450522     0.16800
H2172       H  0.53143169  0.38953054  0.68684184     0.16800
H2173       H  0.97273069  0.11176072  0.68076280     0.16800
H2174       H  0.53140839  0.11158527  0.68044140     0.16800
H2175       H  0.89169286  0.47050050  0.64851230     0.15100
H2176       H  0.89132420  0.03004940  0.64852348     0.15100
H2177       H  0.61379413  0.46956679  0.65298872     0.15100
H2178       H  0.61343356  0.02907216  0.65011049     0.15100
H2179       H  0.50284778  0.47481566  0.65549924     0.28400
H2180       H  0.50224044  0.02504328  0.65402848     0.28400
N2181       N  0.67109543  0.45792656  0.50088974    -0.34400
N2182       N  0.67534075  0.00341391  0.95625943    -0.55000
N2183       N  0.67618021  0.04928209  0.50113604    -0.34400
N2184       N  0.67415697  0.00348701  0.54575963    -0.55000
C2185       C  0.67580392  0.44043281  0.97747019     0.29200
C2186       C  0.67564136  0.44047744  0.52437419     0.29200
C2187       C  0.68315516  0.06601783  0.97772479     0.29200
C2188       C  0.68239064  0.06602200  0.52476211     0.29200
C2189       C  0.66820911  0.47944516  0.93968619     0.37800
C2190       C  0.67131358  0.02818604  0.93974766     0.37800
C2191       C  0.66659366  0.47942121  0.56197164     0.37800
C2192       C  0.66915905  0.02817727  0.56214460     0.37800
C2193       C  0.68355220  0.41148940  0.98614555    -0.19700
C2194       C  0.68352155  0.41152904  0.51579096    -0.19700
C2195       C  0.69401314  0.09375551  0.98656586    -0.19700
C2196       C  0.69355420  0.09374274  0.51627506    -0.19700
C2197       C  0.66023189  0.48893344  0.91225217    -0.20700
C2198       C  0.66219291  0.01987202  0.91228384    -0.20700
C2199       C  0.65719125  0.48877995  0.58903041    -0.20700
C2200       C  0.65880390  0.01974273  0.58914412    -0.20700
C2201       C  0.67024828  0.44912424  0.94872931    -0.16100
C2202       C  0.66961773  0.44915473  0.55304062    -0.16100
C2203       C  0.67542544  0.05798816  0.55346307    -0.16100
C2204       C  0.67710293  0.05799917  0.94881720    -0.16100
H2205       H  0.68802473  0.39215143  0.97253321     0.16800
H2206       H  0.68789095  0.39221316  0.52945636     0.16800
H2207       H  0.70088217  0.11232591  0.97300175     0.16800
H2208       H  0.69998823  0.11231472  0.53004624     0.16800
H2209       H  0.65380127  0.47503633  0.89411812     0.15100
H2210       H  0.65753606  0.03452791  0.89414829     0.15100
H2211       H  0.65006390  0.47477669  0.60683257     0.15100
H2212       H  0.65317185  0.03433334  0.60707228     0.15100
H2213       H  0.66102389  0.47904651  0.50082885     0.28400
H2214       H  0.66389974  0.02952648  0.50092510     0.28400
N2215       N  0.50524203  0.19427491  0.54571096    -0.34400
N2216       N  0.95995313  0.19443011  0.50084447    -0.55000
N2217       N  0.50544733  0.19515045  0.95596054    -0.34400
N2218       N  0.55102549  0.19298674  0.50089880    -0.55000
C2219       C  0.98094304  0.18689029  0.56147076     0.29200
C2220       C  0.52947274  0.18728544  0.56176592     0.29200
C2221       C  0.98114400  0.18834131  0.93997675     0.29200
C2222       C  0.52968615  0.18844115  0.93979269     0.29200
C2223       C  0.94208249  0.19660903  0.52416392     0.37800
C2224       C  0.94219518  0.19708564  0.97749955     0.37800
C2225       C  0.56882522  0.19495963  0.52435700     0.37800
C2226       C  0.56893747  0.19503128  0.97752822     0.37800
C2227       C  0.98986440  0.17619034  0.58823775    -0.19700
C2228       C  0.52041326  0.17652320  0.58846534    -0.19700
C2229       C  0.99006808  0.17850909  0.91290383    -0.19700
C2230       C  0.52062078  0.17864475  0.91275254    -0.19700
C2231       C  0.91289925  0.20148751  0.51560685    -0.20700
C2232       C  0.91297129  0.20178915  0.98603561    -0.20700
C2233       C  0.59816677  0.19845298  0.51582005    -0.20700
C2234       C  0.59824456  0.19843986  0.98620624    -0.20700
C2235       C  0.95092924  0.18959989  0.55255522    -0.16100
C2236       C  0.55954196  0.19025310  0.55315924    -0.16100
C2237       C  0.55976174  0.19062524  0.94864758    -0.16100
C2238       C  0.95112741  0.19057810  0.94902117    -0.16100
H2239       H  0.97584580  0.16861578  0.60575057     0.16800
H2240       H  0.53434252  0.16911676  0.60616876     0.16800
H2241       H  0.97604586  0.17155432  0.89515427     0.16800
H2242       H  0.53454329  0.17169538  0.89487641     0.16800
H2243       H  0.89340424  0.20318686  0.52922098     0.15100
H2244       H  0.89353542  0.20377191  0.97237303     0.15100
H2245       H  0.61761896  0.19987122  0.52949987     0.15100
H2246       H  0.61775563  0.19992038  0.97261364     0.15100
H2247       H  0.50533802  0.20531574  0.52597134     0.28400
H2248       H  0.50551914  0.20541790  0.97607278     0.28400
C2249       C  0.84714106  0.15722660  0.64282817     0.88700
C2250       C  0.86837173  0.13740585  0.66094330    -0.51500
C2251       C  0.88707969  0.12017545  0.64444814     0.11600
C2252       C  0.88303720  0.12441297  0.61190653     0.22600
C2253       C  0.86744972  0.17577807  0.62313082    -0.52300
C2254       C  0.88633940  0.15852620  0.60707083     0.11700
C2255       C  0.83102412  0.13507990  0.62285887    -0.51800
C2256       C  0.84997717  0.11776014  0.60688828     0.12300
H2257       H  0.86822120  0.13666312  0.68435968     0.16800
H2258       H  0.89835374  0.11032694  0.59865947     0.02600
H2259       H  0.86731940  0.20027805  0.62238202     0.17100
H2260       H  0.80700731  0.13258565  0.62216410     0.16900
N2261       N  0.82651541  0.03916698  0.50135502    -0.34400
N2262       N  0.82418144  0.49367038  0.95645125    -0.55000
N2263       N  0.82515973  0.44750601  0.50137318    -0.34400
N2264       N  0.82486245  0.49361769  0.54623602    -0.55000
C2265       C  0.82124963  0.05650779  0.97793978     0.29200
C2266       C  0.82136528  0.05646753  0.52482494     0.29200
C2267       C  0.82011571  0.43020969  0.97778810     0.29200
C2268       C  0.82027173  0.43023044  0.52499101     0.29200
C2269       C  0.83068461  0.01801500  0.94008209     0.37800
C2270       C  0.82934443  0.46913820  0.93985851     0.37800
C2271       C  0.83132356  0.01797314  0.56258527     0.37800
C2272       C  0.83009725  0.46910156  0.56280932     0.37800
C2273       C  0.81228780  0.08509663  0.98659709    -0.19700
C2274       C  0.81231996  0.08506066  0.51624404    -0.19700
C2275       C  0.81202179  0.40147424  0.98653771    -0.19700
C2276       C  0.81198341  0.40153445  0.51628631    -0.19700
C2277       C  0.83932242  0.00899329  0.91270641    -0.20700
C2278       C  0.83834668  0.47801101  0.91250719    -0.20700
C2279       C  0.84008738  0.00897503  0.58993449    -0.20700
C2280       C  0.83927759  0.47798642  0.59010475    -0.20700
C2281       C  0.82783777  0.04823811  0.94930367    -0.16100
C2282       C  0.82809699  0.04817487  0.55342963    -0.16100
C2283       C  0.82567163  0.43891957  0.55396280    -0.16100
C2284       C  0.82526753  0.43892331  0.94878573    -0.16100
H2285       H  0.80716914  0.10425158  0.97296351     0.16800
H2286       H  0.80725766  0.10420007  0.52992230     0.16800
H2287       H  0.80717466  0.38229847  0.97290353     0.16800
H2288       H  0.80718071  0.38236976  0.52994363     0.16800
H2289       H  0.84560810  0.02321964  0.89476248     0.15100
H2290       H  0.84390868  0.46368370  0.89436486     0.15100
H2291       H  0.84632012  0.02322468  0.60788323     0.15100
H2292       H  0.84487015  0.46366687  0.60824059     0.15100
H2293       H  0.83762609  0.01859257  0.50130021     0.28400
H2294       H  0.83518866  0.46848692  0.50131837     0.28400
C2295       C  0.84008117  0.09323123  0.58903141    -0.11100
C2296       C  0.83354146  0.07228710  0.57377803    -0.12600
C2297       C  0.90862783  0.17135162  0.58842780    -0.11100
C2298       C  0.92779253  0.18092408  0.57272494    -0.12600
C2299       C  0.92580536  0.07874825  0.66116186    -0.11100
C2300       C  0.90786897  0.09830922  0.65579217    -0.12600
C2301       C  0.59995575  0.17643739  0.59284440    -0.11100
C2302       C  0.58227364  0.18450147  0.57478698    -0.12600
C2303       C  0.66787285  0.10106767  0.59244993    -0.11100
C2304       C  0.67313448  0.08179163  0.57479493    -0.12600
C2305       C  0.57809695  0.07817877  0.66038475    -0.11100
C2306       C  0.59564449  0.09807096  0.65591675    -0.12600
C2307       C  0.57168430  0.32148458  0.57651612    -0.11100
C2308       C  0.59104268  0.32884457  0.59322740    -0.12600
C2309       C  0.65956881  0.40498707  0.59007231    -0.11100
C2310       C  0.66508716  0.42543747  0.57392118    -0.12600
C2311       C  0.57876964  0.42155404  0.66647070    -0.11100
C2312       C  0.59635909  0.40171052  0.66112116    -0.12600
C2313       C  0.91941846  0.31584441  0.57678436    -0.11100
C2314       C  0.90229044  0.32351724  0.59561480    -0.12600
C2315       C  0.83407853  0.39729272  0.59438221    -0.11100
C2316       C  0.82841315  0.41548439  0.57574457    -0.12600
C2317       C  0.92655187  0.42199202  0.66163558    -0.11100
C2318       C  0.90843562  0.40246929  0.65758230    -0.12600
C2319       C  0.57856639  0.07793868  0.84223769    -0.11100
C2320       C  0.59635260  0.09757258  0.84684611    -0.12600
C2321       C  0.67488565  0.08192745  0.92763987    -0.11100
C2322       C  0.66933156  0.10116805  0.91005314    -0.12600
C2323       C  0.60039684  0.17599546  0.90939760    -0.11100
C2324       C  0.58257289  0.18438865  0.92719952    -0.12600
C2325       C  0.57196212  0.32090952  0.92691441    -0.11100
C2326       C  0.59115465  0.32815959  0.91001313    -0.12600
C2327       C  0.57840700  0.42130591  0.83640758    -0.11100
C2328       C  0.59570121  0.40123842  0.84186117    -0.12600
C2329       C  0.66526606  0.42538145  0.92792257    -0.11100
C2330       C  0.65936844  0.40479290  0.91202609    -0.12600
C2331       C  0.84050044  0.09315922  0.91371266    -0.11100
C2332       C  0.83368356  0.07234180  0.92902713    -0.12600
C2333       C  0.92612587  0.07911902  0.84074346    -0.11100
C2334       C  0.90814454  0.09854158  0.84639824    -0.12600
C2335       C  0.90886231  0.17169917  0.91347428    -0.11100
C2336       C  0.92805923  0.18164733  0.92890780    -0.12600
C2337       C  0.83422929  0.39729500  0.90846517    -0.11100
C2338       C  0.82831551  0.41545715  0.92706365    -0.12600
C2339       C  0.91973231  0.31610358  0.92592691    -0.11100
C2340       C  0.90266164  0.32376667  0.90703760    -0.12600
C2341       C  0.92636429  0.42231316  0.84042596    -0.11100
C2342       C  0.90834401  0.40277989  0.84485677    -0.12600
C2343       C  0.81623867  0.31133119  0.80713099    -0.11100
C2344       C  0.83027771  0.32626344  0.82430246    -0.12600
C2345       C  0.82662928  0.17569033  0.84254343    -0.11100
C2346       C  0.81125478  0.19174239  0.82768232    -0.12600
C2347       C  0.67660270  0.32346273  0.84069129    -0.11100
C2348       C  0.69462623  0.30868389  0.82738021    -0.12600
C2349       C  0.81621087  0.31135451  0.69579366    -0.11100
C2350       C  0.83019815  0.32624837  0.67856190    -0.12600
C2351       C  0.68793339  0.19072009  0.81273594    -0.11100
C2352       C  0.67377170  0.17494143  0.82882007    -0.12600
C2353       C  0.69523046  0.30909673  0.67506771    -0.11100
C2354       C  0.67735624  0.32397902  0.66166289    -0.12600
C2355       C  0.81152199  0.19200148  0.67502978    -0.11100
C2356       C  0.82686582  0.17603488  0.66004600    -0.12600
C2357       C  0.68783314  0.19096221  0.68946872    -0.11100
C2358       C  0.67347447  0.17529084  0.67340961    -0.12600
O2359       O  0.73181268  0.77126133  0.17894546    -0.77900
O2360       O  0.77292601  0.79186922  0.28562017    -0.77900
O2361       O  0.71428172  0.79135136  0.28306233    -0.78000
O2362       O  0.81433111  0.76627406  0.22198535    -0.77900
O2363       O  0.73161785  0.77120874  0.32379235    -0.78000
O2364       O  0.77293689  0.79185037  0.21731197    -0.77900
O2365       O  0.81427398  0.76620731  0.28102577    -0.77900
O2366       O  0.71431957  0.79149819  0.21958074    -0.78000
C2367       C  0.71440516  0.78962725  0.19167325     1.11800
C2368       C  0.80062065  0.78967167  0.28943021     1.11600
C2369       C  0.71412120  0.78940619  0.31095618     1.11800
C2370       C  0.80064196  0.78970081  0.21355080     1.11700
O2371       O  0.78302753  0.73464682  0.18807789    -0.77900
O2372       O  0.73173167  0.71493945  0.30000980    -0.78000
O2373       O  0.69149339  0.73055875  0.22261727    -0.77900
O2374       O  0.79757944  0.70333737  0.28083021    -0.77900
O2375       O  0.78289448  0.73453709  0.31476361    -0.78000
O2376       O  0.73176064  0.71489076  0.20264734    -0.77900
O2377       O  0.79771538  0.70339670  0.22195393    -0.77900
O2378       O  0.69152131  0.73035224  0.27970741    -0.78000
Co2379     Co  0.75044507  0.75374630  0.21182611     1.51500
Co2380     Co  0.75040752  0.75376126  0.29095324     1.51700
Co2381     Co  0.70933915  0.75898249  0.25126393     1.51600
Co2382     Co  0.80245484  0.73506546  0.25144437     1.51500
O2383       O  0.75640793  0.74092451  0.25137606    -1.39900
C2384       C  0.79628243  0.71056622  0.19568868     1.11700
C2385       C  0.70449666  0.71231350  0.29630374     1.11800
C2386       C  0.70446222  0.71243879  0.20609519     1.11700
C2387       C  0.79610343  0.71043613  0.30710971     1.11700
C2388       C  0.84813357  0.84275870  0.34603538     0.88700
C2389       C  0.87039676  0.86481724  0.33249956    -0.51500
C2390       C  0.88683770  0.88009035  0.35238555     0.11600
C2391       C  0.87974612  0.87198974  0.38378320     0.22600
C2392       C  0.86707976  0.82211841  0.36572962    -0.52300
C2393       C  0.88354829  0.83766637  0.38556065     0.11700
C2394       C  0.82940443  0.86212395  0.36694535    -0.51800
C2395       C  0.84619868  0.87731586  0.38671769     0.12300
H2396       H  0.87269722  0.86827956  0.30941046     0.16800
H2397       H  0.89323358  0.88458948  0.39983855     0.02600
H2398       H  0.86724307  0.79766720  0.36425788     0.17100
H2399       H  0.80530595  0.86372149  0.36612387     0.16900
C2400       C  0.84707039  0.65697186  0.35965681     0.88700
C2401       C  0.83118249  0.63476509  0.37971997    -0.51500
C2402       C  0.85029213  0.61758439  0.39564950     0.11600
C2403       C  0.88331077  0.62442180  0.39045660     0.22600
C2404       C  0.86735678  0.67567311  0.37921936    -0.52300
C2405       C  0.88644086  0.65858133  0.39519152     0.11700
C2406       C  0.86832958  0.63727001  0.34146522    -0.51800
C2407       C  0.88722280  0.62017991  0.35788787     0.12300
H2408       H  0.80718177  0.63216868  0.38054652     0.16800
H2409       H  0.89878673  0.61046267  0.40364835     0.02600
H2410       H  0.86712241  0.70017673  0.37989072     0.17100
H2411       H  0.86810125  0.63653409  0.31804888     0.16900
C2412       C  0.65491282  0.84157366  0.35714474     0.88700
C2413       C  0.66999492  0.86346055  0.37811935    -0.51500
C2414       C  0.65033131  0.88067844  0.39330075     0.11600
C2415       C  0.61760763  0.87432650  0.38657113     0.22600
C2416       C  0.63341228  0.82291217  0.37579844    -0.52300
C2417       C  0.61379797  0.84027416  0.39113505     0.11700
C2418       C  0.63476409  0.86163900  0.33820816    -0.51800
C2419       C  0.61533892  0.87881199  0.35392000     0.12300
H2420       H  0.69395301  0.86582246  0.38008656     0.16800
H2421       H  0.60176107  0.88848812  0.39915257     0.02600
H2422       H  0.63361766  0.79842740  0.37668605     0.17100
H2423       H  0.63625649  0.86274044  0.31484916     0.16900
C2424       C  0.65596145  0.65784966  0.34970348     0.88700
C2425       C  0.63393814  0.63608705  0.33544854    -0.51500
C2426       C  0.61737954  0.62040130  0.35490691     0.11600
C2427       C  0.62407813  0.62790417  0.38649346     0.22600
C2428       C  0.63690012  0.67809219  0.36944802    -0.52300
C2429       C  0.62024894  0.66220855  0.38872489     0.11700
C2430       C  0.67457141  0.63810287  0.37028696    -0.51800
C2431       C  0.65759760  0.62245218  0.38950505     0.12300
H2432       H  0.63196547  0.63302362  0.31227749     0.16800
H2433       H  0.61041996  0.61499229  0.40217369     0.02600
H2434       H  0.63657906  0.70256635  0.36825394     0.17100
H2435       H  0.69866033  0.63631176  0.36944213     0.16900
N2436       N  0.50242105  0.95427169  0.33573029    -0.34400
N2437       N  0.54861016  0.50004734  0.33507245    -0.55000
N2438       N  0.50238366  0.54637707  0.33807748    -0.34400
N2439       N  0.95620871  0.50060486  0.33561091    -0.55000
C2440       C  0.52653094  0.93691297  0.32995087     0.29200
C2441       C  0.97805132  0.93709669  0.33142540     0.29200
C2442       C  0.52670290  0.56373663  0.33425130     0.29200
C2443       C  0.97820218  0.56406283  0.33359413     0.29200
C2444       C  0.56597738  0.97533035  0.33848931     0.37800
C2445       C  0.56591078  0.52416561  0.34072318     0.37800
C2446       C  0.93903254  0.97620380  0.34055294     0.37800
C2447       C  0.93892076  0.52512089  0.34053597     0.37800
C2448       C  0.51734227  0.90828060  0.32191950    -0.19700
C2449       C  0.98676837  0.90838460  0.32289868    -0.19700
C2450       C  0.51787306  0.59292722  0.32746090    -0.19700
C2451       C  0.98729315  0.59311951  0.32700273    -0.19700
C2452       C  0.59468769  0.98380945  0.34571153    -0.20700
C2453       C  0.59464020  0.51476019  0.34715057    -0.20700
C2454       C  0.91047707  0.98526294  0.34801635    -0.20700
C2455       C  0.91038688  0.51624413  0.34793516    -0.20700
C2456       C  0.55649777  0.94530592  0.33426750    -0.16100
C2457       C  0.94837436  0.94590596  0.33718513    -0.16100
C2458       C  0.94827433  0.55537723  0.33767859    -0.16100
C2459       C  0.55649412  0.55455888  0.33881513    -0.16100
H2460       H  0.53124524  0.88908809  0.31652063     0.16800
H2461       H  0.97258711  0.88931877  0.31832949     0.16800
H2462       H  0.53199036  0.61222350  0.32365294     0.16800
H2463       H  0.97333498  0.61260433  0.32284115     0.16800
H2464       H  0.61367714  0.96924044  0.34953604     0.15100
H2465       H  0.61360832  0.52872279  0.35224735     0.15100
H2466       H  0.89164247  0.97105502  0.35294194     0.15100
H2467       H  0.89150235  0.53057286  0.35289917     0.15100
H2468       H  0.50264520  0.97515115  0.34580470     0.28400
H2469       H  0.50230803  0.52489531  0.34690716     0.28400
C2470       C  0.84800197  0.84265532  0.15676182     0.88700
C2471       C  0.82923270  0.86209232  0.13593923    -0.51500
C2472       C  0.84599447  0.87721944  0.11609611     0.11600
C2473       C  0.87952448  0.87175773  0.11887399     0.22600
C2474       C  0.86677886  0.82194300  0.13697853    -0.52300
C2475       C  0.88320346  0.83743228  0.11708063     0.11700
C2476       C  0.87041719  0.86463354  0.17019799    -0.51800
C2477       C  0.88680279  0.87983551  0.15022462     0.12300
H2478       H  0.80514479  0.86378691  0.13687412     0.16800
H2479       H  0.89298154  0.88430580  0.10276118     0.02600
H2480       H  0.86690018  0.79749361  0.13846926     0.17100
H2481       H  0.87285568  0.86809322  0.19327524     0.16900
C2482       C  0.65560138  0.84215540  0.14534078     0.88700
C2483       C  0.63572384  0.86234209  0.16444012    -0.51500
C2484       C  0.61615358  0.87951351  0.14890109     0.11600
C2485       C  0.61806018  0.87495292  0.11623983     0.22600
C2486       C  0.63380726  0.82352815  0.12693502    -0.52300
C2487       C  0.61405029  0.84091822  0.11178161     0.11700
C2488       C  0.67052610  0.86391923  0.12415597    -0.51800
C2489       C  0.65073002  0.88114022  0.10914070     0.12300
H2490       H  0.63739803  0.86340882  0.18778914     0.16800
H2491       H  0.60212287  0.88914241  0.10379680     0.02600
H2492       H  0.63390612  0.79904269  0.12610551     0.17100
H2493       H  0.69446879  0.86615116  0.12187976     0.16900
N2494       N  0.54162225  0.81209224  0.00167957    -0.34400
N2495       N  0.49556361  0.81066963  0.04597094    -0.55000
N2496       N  0.94936087  0.80709543  0.00141170    -0.34400
N2497       N  0.49569820  0.81089896  0.45713693    -0.55000
C2498       C  0.55809292  0.81896109  0.02525223     0.29200
C2499       C  0.55819152  0.81882158  0.47814661     0.29200
C2500       C  0.93247863  0.81312718  0.02501276     0.29200
C2501       C  0.93257764  0.81329454  0.47777313     0.29200
C2502       C  0.51979281  0.80960287  0.06331502     0.37800
C2503       C  0.97153364  0.80697918  0.06316170     0.37800
C2504       C  0.52001783  0.80946969  0.43995276     0.37800
C2505       C  0.97176627  0.80718762  0.43982146     0.37800
C2506       C  0.58573215  0.82936007  0.01653036    -0.19700
C2507       C  0.58580401  0.82924107  0.48692099    -0.19700
C2508       C  0.90432517  0.82223041  0.01620353    -0.19700
C2509       C  0.90439402  0.82235556  0.48650876    -0.19700
C2510       C  0.51111075  0.80498022  0.09164641    -0.20700
C2511       C  0.98060910  0.80328698  0.09155680    -0.20700
C2512       C  0.51148543  0.80464221  0.41160315    -0.20700
C2513       C  0.98097947  0.80318922  0.41151255    -0.20700
C2514       C  0.54930065  0.81568041  0.05444214    -0.16100
C2515       C  0.54950661  0.81537898  0.44894816    -0.16100
C2516       C  0.94178901  0.81089252  0.44853358    -0.16100
C2517       C  0.94158200  0.81062288  0.05428384    -0.16100
H2518       H  0.60401342  0.83647747  0.03006262     0.16800
H2519       H  0.60413836  0.83627538  0.47341981     0.18800
H2520       H  0.88571603  0.82859303  0.02975190     0.16800
H2521       H  0.88584637  0.82880020  0.47291549     0.16800
H2522       H  0.52522261  0.80383136  0.11053291     0.15100
H2523       H  0.96665401  0.80065342  0.11040331     0.15100
H2524       H  0.52571247  0.80315687  0.39281920     0.15100
H2525       H  0.96712171  0.80040791  0.39261655     0.15100
H2526       H  0.52127840  0.80119294  0.00163871     0.28400
H2527       H  0.97040136  0.79734572  0.00143855     0.28400
C2528       C  0.65537772  0.65824468  0.15268670     0.88700
C2529       C  0.67372109  0.63819658  0.13210613    -0.51500
C2530       C  0.65651504  0.62258007  0.11303246     0.11600
C2531       C  0.62308418  0.62835692  0.11616121     0.22600
C2532       C  0.63640417  0.67853461  0.13290001    -0.52300
C2533       C  0.61956120  0.66266632  0.11375776     0.11700
C2534       C  0.63321956  0.63673246  0.16712314    -0.51800
C2535       C  0.61647275  0.62105543  0.14779187     0.12300
H2536       H  0.69779708  0.63619837  0.13284921     0.16800
H2537       H  0.60925655  0.61547836  0.10058868     0.02600
H2538       H  0.63634620  0.70301888  0.13391108     0.17100
H2539       H  0.63140050  0.63371316  0.19030938     0.16900
N2540       N  0.50258365  0.95413627  0.16591570    -0.34400
N2541       N  0.95625354  0.50032773  0.16536797    -0.55000
N2542       N  0.50213720  0.54620012  0.16355747    -0.34400
N2543       N  0.54849620  0.50008344  0.16699705    -0.55000
C2544       C  0.97821740  0.93698742  0.17038175     0.29200
C2545       C  0.52668654  0.93698634  0.17231285     0.29200
C2546       C  0.97786459  0.56366886  0.16840978     0.29200
C2547       C  0.52634906  0.56350943  0.16816659     0.29200
C2548       C  0.93914888  0.97585239  0.16056499     0.37800
C2549       C  0.93883496  0.52476863  0.16056792     0.37800
C2550       C  0.56599850  0.97545115  0.16374553     0.37800
C2551       C  0.56570720  0.52426879  0.16137171     0.37800
C2552       C  0.98693700  0.90851133  0.17959397    -0.19700
C2553       C  0.51750827  0.90852518  0.18085813    -0.19700
C2554       C  0.98679401  0.59249413  0.17603779    -0.19700
C2555       C  0.51737838  0.59240512  0.17584907    -0.19700
C2556       C  0.91052572  0.98479029  0.15318233    -0.20700
C2557       C  0.91031652  0.51578856  0.15324017    -0.20700
C2558       C  0.59469184  0.98404835  0.15659698    -0.20700
C2559       C  0.59449540  0.51499928  0.15503730    -0.20700
C2560       C  0.94854489  0.94563496  0.16436136    -0.16100
C2561       C  0.55666597  0.94542863  0.16818921    -0.16100
C2562       C  0.55617873  0.55459508  0.16351997    -0.16100
C2563       C  0.94800926  0.55501328  0.16389065    -0.16100
H2564       H  0.97275774  0.88954094  0.18451342     0.16800
H2565       H  0.53142177  0.88953915  0.18685839     0.16800
H2566       H  0.97272955  0.61175289  0.18078370     0.16800
H2567       H  0.53141317  0.61157154  0.18046654     0.16800
H2568       H  0.89168814  0.97049809  0.14849265     0.15100
H2569       H  0.89131876  0.53005295  0.14852136     0.15100
H2570       H  0.61378067  0.96956201  0.15295702     0.15100
H2571       H  0.61342281  0.52906122  0.15006921     0.15100
H2572       H  0.50284232  0.97481081  0.15547667     0.28400
H2573       H  0.50223759  0.52504324  0.15402141     0.28400
N2574       N  0.67108544  0.95793646  0.00089053    -0.34400
N2575       N  0.67535113  0.50339893  0.45625739    -0.55000
N2576       N  0.67616639  0.54930052  0.00113665    -0.34400
N2577       N  0.67415276  0.50350089  0.04576020    -0.55000
C2578       C  0.67581595  0.94042555  0.47747068     0.29200
C2579       C  0.67562457  0.94048438  0.02437471     0.29200
C2580       C  0.68318110  0.56599594  0.47772153     0.29200
C2581       C  0.68237385  0.56604158  0.02476288     0.29200
C2582       C  0.66819662  0.97943324  0.43969057     0.37800
C2583       C  0.67131456  0.52817126  0.43974850     0.37800
C2584       C  0.66659629  0.97942959  0.06197760     0.37800
C2585       C  0.66916217  0.52819065  0.06214833     0.37800
C2586       C  0.68358668  0.91148795  0.48614521    -0.19700
C2587       C  0.68349490  0.91153384  0.01578994    -0.19700
C2588       C  0.69405329  0.59372808  0.48656183    -0.19700
C2589       C  0.69353001  0.59376551  0.01627592    -0.19700
C2590       C  0.66019904  0.98892208  0.41226231    -0.20700
C2591       C  0.66217460  0.51985864  0.41229039    -0.20700
C2592       C  0.65721626  0.98878674  0.08904410    -0.20700
C2593       C  0.65882316  0.51975461  0.08915319    -0.20700
C2594       C  0.67024766  0.94911332  0.44873205    -0.16100
C2595       C  0.66960950  0.94916245  0.05304332    -0.16100
C2596       C  0.67542086  0.55800310  0.05346551    -0.16100
C2597       C  0.67711381  0.55798255  0.44881611    -0.16100
H2598       H  0.68807308  0.89215371  0.47253222     0.16800
H2599       H  0.68785850  0.89221586  0.02945430     0.16800
H2600       H  0.70092958  0.61229510  0.47299699     0.16800
H2601       H  0.69996222  0.61233817  0.03004708     0.16800
H2602       H  0.65375485  0.97502521  0.39413267     0.15100
H2603       H  0.65750658  0.53451543  0.39415815     0.15100
H2604       H  0.65010284  0.97478256  0.10685086     0.15100
H2605       H  0.65320024  0.53434425  0.10708473     0.15100
H2606       H  0.66102296  0.97906043  0.00083025     0.28400
H2607       H  0.66389329  0.52954023  0.00092533     0.28400
N2608       N  0.50524800  0.69425796  0.04570914    -0.34400
N2609       N  0.95996148  0.69442405  0.00084357    -0.55000
N2610       N  0.50544010  0.69516448  0.45595887    -0.34400
N2611       N  0.55103567  0.69296105  0.00089950    -0.55000
C2612       C  0.98094889  0.68688666  0.06147013     0.29200
C2613       C  0.52947615  0.68725767  0.06176358     0.29200
C2614       C  0.98113841  0.68834562  0.43997605     0.29200
C2615       C  0.52968007  0.68846105  0.43979047     0.29200
C2616       C  0.94209166  0.69661547  0.02416318     0.37800
C2617       C  0.94218756  0.69708121  0.47749944     0.37800
C2618       C  0.56883537  0.69492057  0.02435867     0.37800
C2619       C  0.56892831  0.69506473  0.47752622     0.37800
C2620       C  0.98986800  0.67618219  0.08823616    -0.19700
C2621       C  0.52041263  0.67649287  0.08846075    -0.19700
C2622       C  0.99006317  0.67851426  0.41290305    -0.19700
C2623       C  0.52061639  0.67866338  0.41275019    -0.19700
C2624       C  0.91291164  0.70151081  0.01560507    -0.20700
C2625       C  0.91296094  0.70176808  0.48603549    -0.20700
C2626       C  0.59818014  0.69839274  0.01582338    -0.20700
C2627       C  0.59823314  0.69849250  0.48620364    -0.20700
C2628       C  0.95093536  0.68960911  0.05255673    -0.16100
C2629       C  0.55954685  0.69022113  0.05316040    -0.16100
C2630       C  0.55975511  0.69064969  0.44864602    -0.16100
C2631       C  0.95112199  0.69057398  0.44902219    -0.16100
H2632       H  0.97584787  0.66861070  0.10574905     0.16800
H2633       H  0.53433919  0.66907804  0.10616298     0.16800
H2634       H  0.97604145  0.67155613  0.39515430     0.16800
H2635       H  0.53454010  0.67171799  0.39487355     0.16800
H2636       H  0.89341786  0.70322528  0.02921917     0.15100
H2637       H  0.89352359  0.70373826  0.47237328     0.15100
H2638       H  0.61763291  0.69979538  0.02950405     0.15100
H2639       H  0.61774269  0.69998580  0.47261041     0.15100
H2640       H  0.50534810  0.70530436  0.02597206     0.28400
H2641       H  0.50550975  0.70543045  0.47607196     0.28400
C2642       C  0.84714321  0.65723032  0.14283792     0.88700
C2643       C  0.86837079  0.63740620  0.16095269    -0.51500
C2644       C  0.88708716  0.62018502  0.14445793     0.11600
C2645       C  0.88305479  0.62443313  0.11191610     0.22600
C2646       C  0.86745565  0.67579222  0.12315230    -0.52300
C2647       C  0.88635265  0.65854928  0.10709090     0.11700
C2648       C  0.83103670  0.63508702  0.12285623    -0.51800
C2649       C  0.84999737  0.61777416  0.10688644     0.12300
H2650       H  0.86821066  0.63665279  0.18436873     0.16800
H2651       H  0.89837794  0.61035393  0.09866964     0.02600
H2652       H  0.86731904  0.70029238  0.12240920     0.17100
H2653       H  0.80702082  0.63258592  0.12215671     0.16900
N2654       N  0.82654224  0.53916913  0.00135765    -0.34400
N2655       N  0.82417952  0.99367275  0.45645214    -0.55000
N2656       N  0.82515126  0.94749717  0.00137260    -0.34400
N2657       N  0.82484855  0.99361474  0.04623984    -0.55000
C2658       C  0.82122754  0.55650092  0.47793904     0.29200
C2659       C  0.82140902  0.55647638  0.02482745     0.29200
C2660       C  0.82007291  0.93023413  0.47778904     0.29200
C2661       C  0.82029706  0.93021138  0.02499112     0.29200
C2662       C  0.83072537  0.51801572  0.44009486     0.37800
C2663       C  0.82940147  0.96914081  0.43987733     0.37800
C2664       C  0.83127475  0.51797048  0.06260700     0.37800
C2665       C  0.83004726  0.96909820  0.06282423     0.37800
C2666       C  0.81223949  0.58508163  0.48659598    -0.19700
C2667       C  0.81240088  0.58508074  0.01624514    -0.19700
C2668       C  0.81190076  0.90152193  0.48653822    -0.19700
C2669       C  0.81206725  0.90149811  0.01628487    -0.19700
C2670       C  0.83942949  0.50899311  0.41273899    -0.20700
C2671       C  0.83849177  0.97801015  0.41255302    -0.20700
C2672       C  0.83994763  0.50897220  0.08998306    -0.20700
C2673       C  0.83916728  0.97798557  0.09013835    -0.20700
C2674       C  0.82783758  0.54823694  0.44930693    -0.16100
C2675       C  0.82810607  0.54817542  0.05343836    -0.16100
C2676       C  0.82566130  0.93891116  0.05396803    -0.16100
C2677       C  0.82527525  0.93893191  0.44879334    -0.16100
H2678       H  0.80710736  0.60423257  0.47296190     0.16800
H2679       H  0.80735372  0.60422505  0.02992228     0.16800
H2680       H  0.80700742  0.88235915  0.47290321     0.16800
H2681       H  0.80729949  0.88232320  0.02994081     0.16800
H2682       H  0.84575173  0.52321925  0.39480717     0.15100
H2683       H  0.84411515  0.96368011  0.39443027     0.15100
H2684       H  0.84613106  0.52322118  0.10794860     0.15100
H2685       H  0.84472167  0.96366786  0.10828641     0.15100
H2686       H  0.83762448  0.51858075  0.00130389     0.28400
H2687       H  0.83512872  0.96850126  0.00131820     0.28400
C2688       C  0.84010960  0.59323668  0.08903301    -0.11100
C2689       C  0.83356421  0.57228716  0.07378690    -0.12600
C2690       C  0.90863543  0.67138346  0.08844449    -0.11100
C2691       C  0.92779608  0.68095061  0.07273257    -0.12600
C2692       C  0.92580287  0.57874832  0.16117176    -0.11100
C2693       C  0.90787060  0.59831315  0.15580212    -0.12600
C2694       C  0.59995306  0.67642056  0.09285715    -0.11100
C2695       C  0.58227408  0.68447583  0.07479362    -0.12600
C2696       C  0.66788264  0.60107646  0.09246073    -0.11100
C2697       C  0.67313920  0.58180383  0.07480110    -0.12600
C2698       C  0.57810005  0.57816961  0.16039208    -0.11100
C2699       C  0.59565179  0.59806007  0.15593156    -0.12600
C2700       C  0.57168714  0.82148937  0.07651983    -0.11100
C2701       C  0.59104675  0.82884604  0.09323152    -0.12600
C2702       C  0.65956403  0.90499605  0.09008058    -0.11100
C2703       C  0.66508058  0.92544478  0.07392576    -0.12600
C2704       C  0.57876039  0.92155276  0.16647170    -0.11100
C2705       C  0.59634976  0.90170820  0.16112711    -0.12600
C2706       C  0.91941979  0.81582609  0.07678438    -0.11100
C2707       C  0.90229205  0.82350122  0.09561458    -0.12600
C2708       C  0.83407647  0.89728206  0.09438666    -0.11100
C2709       C  0.82840821  0.91547633  0.07575144    -0.12600
C2710       C  0.92654524  0.92198872  0.16162975    -0.11100
C2711       C  0.90843328  0.90246192  0.15757727    -0.12600
C2712       C  0.57856904  0.57793830  0.34224078    -0.11100
C2713       C  0.59635187  0.59757367  0.34685594    -0.12600
C2714       C  0.67488529  0.58191390  0.42764359    -0.11100
C2715       C  0.66932427  0.60115873  0.41006323    -0.12600
C2716       C  0.60039462  0.67600495  0.40940429    -0.11100
C2717       C  0.58256857  0.68440613  0.42720138    -0.12600
C2718       C  0.57195991  0.82090989  0.42691558    -0.11100
C2719       C  0.59114673  0.82816286  0.41001001    -0.12600
C2720       C  0.57841873  0.92131729  0.33640372    -0.11100
C2721       C  0.59571267  0.90124956  0.34185769    -0.12600
C2722       C  0.66526460  0.92536944  0.42792856    -0.11100
C2723       C  0.65936611  0.90478099  0.41203342    -0.12600
C2724       C  0.84048653  0.59315494  0.41371165    -0.11100
C2725       C  0.83367354  0.57234106  0.42903069    -0.12600
C2726       C  0.92613398  0.57911759  0.34075124    -0.11100
C2727       C  0.90814943  0.59853809  0.34640421    -0.12600
C2728       C  0.90885840  0.67167892  0.41348448    -0.11100
C2729       C  0.92805630  0.68163162  0.42891275    -0.12600
C2730       C  0.83423824  0.89730262  0.40847698    -0.11100
C2731       C  0.82832433  0.91546296  0.42707634    -0.12600
C2732       C  0.91973601  0.81611920  0.42592749    -0.11100
C2733       C  0.90266568  0.82377999  0.40703763    -0.12600
C2734       C  0.92637377  0.92231377  0.34041946    -0.11100
C2735       C  0.90834898  0.90278507  0.34485218    -0.12600
C2736       C  0.81623157  0.81133992  0.30714444    -0.11100
C2737       C  0.83027073  0.82627512  0.32431346    -0.12600
C2738       C  0.82663623  0.67569351  0.34255145    -0.11100
C2739       C  0.81126075  0.69174990  0.32769655    -0.12600
C2740       C  0.67659820  0.82345652  0.34069941    -0.11100
C2741       C  0.69462382  0.80867583  0.32739449    -0.12600
C2742       C  0.81621759  0.81134770  0.19580333    -0.11100
C2743       C  0.83020491  0.82623685  0.17856775    -0.12600
C2744       C  0.68794094  0.69071178  0.31274998    -0.11100
C2745       C  0.67377870  0.67493387  0.32883441    -0.12600
C2746       C  0.69523011  0.80910648  0.17508541    -0.11100
C2747       C  0.67735668  0.82398774  0.16167716    -0.12600
C2748       C  0.81151589  0.69199375  0.17504554    -0.11100
C2749       C  0.82685982  0.67602951  0.16005826    -0.12600
C2750       C  0.68782901  0.69096966  0.18948172    -0.11100
C2751       C  0.67347022  0.67529638  0.17342433    -0.12600
O2752       O  0.73181630  0.77124996  0.67892569    -0.77900
O2753       O  0.77293149  0.79186845  0.78560364    -0.77900
O2754       O  0.71427676  0.79135565  0.78304053    -0.78000
O2755       O  0.81433075  0.76627835  0.72197623    -0.77900
O2756       O  0.73161525  0.77121857  0.82377243    -0.78000
O2757       O  0.77293354  0.79184910  0.71729527    -0.77900
O2758       O  0.81427592  0.76619991  0.78101667    -0.77900
O2759       O  0.71432554  0.79149287  0.71955876    -0.78000
C2760       C  0.71440977  0.78961755  0.69165199     1.11800
C2761       C  0.80062511  0.78966627  0.78941892     1.11600
C2762       C  0.71411785  0.78941482  0.81093516     1.11800
C2763       C  0.80063970  0.78970362  0.71353974     1.11700
O2764       O  0.78303374  0.73465145  0.68806317    -0.77900
O2765       O  0.73172388  0.71494687  0.79999500    -0.78000
O2766       O  0.69149964  0.73055285  0.72259609    -0.77900
O2767       O  0.79757899  0.70333250  0.78081512    -0.77900
O2768       O  0.78288875  0.73453071  0.81474882    -0.78000
O2769       O  0.73176948  0.71488188  0.70263308    -0.77900
O2770       O  0.79771622  0.70339888  0.72193828    -0.77900
O2771       O  0.69151605  0.73035713  0.77968639    -0.78000
Co2772     Co  0.75044731  0.75374145  0.71180986     1.51500
Co2773     Co  0.75040647  0.75376455  0.79093680     1.51700
Co2774     Co  0.70933976  0.75898192  0.75124324     1.51600
Co2775     Co  0.80245534  0.73506397  0.75143147     1.51500
O2776       O  0.75640852  0.74092372  0.75136175    -1.39900
C2777       C  0.79628828  0.71057158  0.69567392     1.11700
C2778       C  0.70448930  0.71232104  0.79628627     1.11800
C2779       C  0.70447061  0.71243016  0.70607769     1.11700
C2780       C  0.79609768  0.71042873  0.80709543     1.11700
C2781       C  0.84813223  0.84274789  0.84603421     0.88700
C2782       C  0.87039693  0.86480664  0.83250152    -0.51500
C2783       C  0.88683377  0.88008099  0.85238968     0.11600
C2784       C  0.87973800  0.87198030  0.88378649     0.22600
C2785       C  0.86707598  0.82210835  0.86573132    -0.52300
C2786       C  0.88354138  0.83765669  0.88556457     0.11700
C2787       C  0.82939917  0.86211348  0.86694112    -0.51800
C2788       C  0.84618989  0.87730649  0.88671589     0.12300
H2789       H  0.87270047  0.86826926  0.80941273     0.16800
H2790       H  0.89322287  0.88458074  0.89984334     0.02600
H2791       H  0.86724154  0.79765720  0.86425846     0.17100
H2792       H  0.80530091  0.86371165  0.86611485     0.16900
C2793       C  0.84707322  0.65697600  0.85965077     0.88700
C2794       C  0.83119738  0.63477176  0.87972662    -0.51500
C2795       C  0.85031565  0.61759772  0.89565393     0.11600
C2796       C  0.88333126  0.62444215  0.89044810     0.22600
C2797       C  0.86736421  0.67568745  0.87920101    -0.52300
C2798       C  0.88645685  0.65860450  0.89517314     0.11700
C2799       C  0.86832881  0.63727172  0.84145801    -0.51800
C2800       C  0.88723160  0.62019087  0.85787888     0.12300
H2801       H  0.80719774  0.63216813  0.88055911     0.16800
H2802       H  0.89881479  0.61048975  0.90363793     0.02600
H2803       H  0.86712351  0.70019118  0.87986703     0.17100
H2804       H  0.86808996  0.63652594  0.81804203     0.16900
C2805       C  0.65491207  0.84157969  0.85713817     0.88700
C2806       C  0.66999551  0.86347076  0.87810888    -0.51500
C2807       C  0.65033292  0.88068614  0.89329505     0.11600
C2808       C  0.61760854  0.87432785  0.88657282     0.22600
C2809       C  0.63341846  0.82291551  0.87579812    -0.52300
C2810       C  0.61380447  0.84027502  0.89113859     0.11700
C2811       C  0.63475482  0.86164093  0.83820629    -0.51800
C2812       C  0.61533100  0.87881136  0.85392207     0.12300
H2813       H  0.69395365  0.86583677  0.88007029     0.16800
H2814       H  0.60176250  0.88848740  0.89915696     0.02600
H2815       H  0.63362621  0.79843073  0.87668468     0.17100
H2816       H  0.63624101  0.86274205  0.81484689     0.16900
C2817       C  0.65596113  0.65785079  0.84968488     0.88700
C2818       C  0.63394245  0.63608275  0.83543057    -0.51500
C2819       C  0.61738920  0.62039238  0.85488977     0.11600
C2820       C  0.62408836  0.62789586  0.88647574     0.22600
C2821       C  0.63689613  0.67808772  0.86943123    -0.52300
C2822       C  0.62025136  0.66219856  0.88870891     0.11700
C2823       C  0.67457785  0.63810861  0.87026709    -0.51800
C2824       C  0.65760877  0.62245330  0.88948574     0.12300
H2825       H  0.63196754  0.63302088  0.81225952     0.16800
H2826       H  0.61043449  0.61498022  0.90215673     0.02600
H2827       H  0.63656976  0.70256194  0.86823930     0.17100
H2828       H  0.69866733  0.63632586  0.86942262     0.16900
N2829       N  0.50241137  0.95427133  0.83573435    -0.34400
N2830       N  0.54860855  0.50004234  0.83508288    -0.55000
N2831       N  0.50238656  0.54637611  0.83807012    -0.34400
N2832       N  0.95620455  0.50060600  0.83561796    -0.55000
C2833       C  0.52652045  0.93691298  0.82995163     0.29200
C2834       C  0.97803838  0.93709583  0.83142481     0.29200
C2835       C  0.52670760  0.56373251  0.83424134     0.29200
C2836       C  0.97820175  0.56406290  0.83358710     0.29200
C2837       C  0.56596727  0.97532737  0.83849687     0.37800
C2838       C  0.56590970  0.52415984  0.84073406     0.37800
C2839       C  0.93901910  0.97620228  0.84054740     0.37800
C2840       C  0.93891810  0.52512406  0.84053800     0.37800
C2841       C  0.51733113  0.90828229  0.82191555    -0.19700
C2842       C  0.98675580  0.90838479  0.82289549    -0.19700
C2843       C  0.51788066  0.59292161  0.82744179    -0.19700
C2844       C  0.98729432  0.59311846  0.82699281    -0.19700
C2845       C  0.59467681  0.98380482  0.84572364    -0.20700
C2846       C  0.59463574  0.51475266  0.84717384    -0.20700
C2847       C  0.91046251  0.98526246  0.84800537    -0.20700
C2848       C  0.91038430  0.51625029  0.84794167    -0.20700
C2849       C  0.55648692  0.94530380  0.83427194    -0.16100
C2850       C  0.94836159  0.94590420  0.83718481    -0.16100
C2851       C  0.94827320  0.55537922  0.83767253    -0.16100
C2852       C  0.55649733  0.55455338  0.83881242    -0.16100
H2853       H  0.53123364  0.88909043  0.81651346     0.16800
H2854       H  0.97257475  0.88931945  0.81832372     0.16800
H2855       H  0.53199987  0.61221581  0.82363085     0.16800
H2856       H  0.97333715  0.61260343  0.82282874     0.16800
H2857       H  0.61366479  0.96923468  0.84955119     0.15100
H2858       H  0.61360356  0.52871440  0.85227386     0.15100
H2859       H  0.89162706  0.97105524  0.85292991     0.15100
H2860       H  0.89150067  0.53058112  0.85290367     0.15100
H2861       H  0.50263623  0.97514860  0.84581334     0.28400
H2862       H  0.50230893  0.52489732  0.84690536     0.28400
C2863       C  0.84800458  0.84266614  0.65676169     0.88700
C2864       C  0.82923793  0.86210292  0.63593701    -0.51500
C2865       C  0.84600210  0.87722926  0.61609553     0.11600
C2866       C  0.87953164  0.87176771  0.61887682     0.22600
C2867       C  0.86678308  0.82195342  0.63698023    -0.52300
C2868       C  0.88320967  0.83744250  0.61708382     0.11700
C2869       C  0.87041894  0.86464430  0.67020001    -0.51800
C2870       C  0.88680739  0.87984545  0.65022800     0.12300
H2871       H  0.80514982  0.86379689  0.63686840     0.16800
H2872       H  0.89299041  0.88431521  0.60276491     0.02600
H2873       H  0.86690276  0.79750398  0.63847004     0.17100
H2874       H  0.87285561  0.86810356  0.69327747     0.16900
C2875       C  0.65560426  0.84214847  0.64533207     0.88700
C2876       C  0.63573377  0.86233878  0.66443518    -0.51500
C2877       C  0.61616219  0.87951227  0.64889945     0.11600
C2878       C  0.61806147  0.87494949  0.61623801     0.22600
C2879       C  0.63380458  0.82352320  0.62693190    -0.52300
C2880       C  0.61404721  0.84091505  0.61178177     0.11700
C2881       C  0.67052766  0.86390864  0.62414393    -0.51800
C2882       C  0.65073068  0.88113167  0.60913280     0.12300
H2883       H  0.63741347  0.86340613  0.68778380     0.16800
H2884       H  0.60212366  0.88914043  0.60379709     0.02600
H2885       H  0.63390155  0.79903773  0.62610184     0.17100
H2886       H  0.69447024  0.86613751  0.62186312     0.16900
N2887       N  0.54162412  0.81208136  0.50167926    -0.34400
N2888       N  0.49556445  0.81066938  0.54597150    -0.55000
N2889       N  0.94936405  0.80711395  0.50141163    -0.34400
N2890       N  0.49569789  0.81089769  0.95713720    -0.55000
C2891       C  0.55809866  0.81894035  0.52525190     0.29200
C2892       C  0.55818628  0.81884102  0.97814686     0.29200
C2893       C  0.93248283  0.81314851  0.52501264     0.29200
C2894       C  0.93257337  0.81327300  0.97777311     0.29200
C2895       C  0.51979311  0.80960451  0.56331610     0.37800
C2896       C  0.97153552  0.80699359  0.56316262     0.37800
C2897       C  0.52001842  0.80946620  0.93995401     0.37800
C2898       C  0.97176426  0.80717218  0.93982244     0.37800
C2899       C  0.58574472  0.82932111  0.51652999    -0.19700
C2900       C  0.58579180  0.82927915  0.98692124    -0.19700
C2901       C  0.90433150  0.82225864  0.51620349    -0.19700
C2902       C  0.90438763  0.82232721  0.98650879    -0.19700
C2903       C  0.51111008  0.80499347  0.59164903    -0.20700
C2904       C  0.98060978  0.80330825  0.59155892    -0.20700
C2905       C  0.51148730  0.80462770  0.91160582    -0.20700
C2906       C  0.98097858  0.80316665  0.91151484    -0.20700
C2907       C  0.54930244  0.81567167  0.55444195    -0.16100
C2908       C  0.54950584  0.81538528  0.94894860    -0.16100
C2909       C  0.94178612  0.81087520  0.94853351    -0.16100
C2910       C  0.94158480  0.81063981  0.55428366    -0.16100
H2911       H  0.60403035  0.83642740  0.53006209     0.16800
H2912       H  0.60412215  0.83632384  0.97341993     0.18800
H2913       H  0.88572371  0.82862519  0.52975191     0.16800
H2914       H  0.88583854  0.82876778  0.97291561     0.16800
H2915       H  0.52522144  0.80384889  0.61053611     0.15100
H2916       H  0.96665420  0.80068388  0.61040629     0.15100
H2917       H  0.52571515  0.80313801  0.89282276     0.15100
H2918       H  0.96712122  0.80037656  0.89261976     0.15100
H2919       H  0.52127213  0.80119778  0.50163834     0.28400
H2920       H  0.97040201  0.79735812  0.50143843     0.28400
C2921       C  0.65538036  0.65824370  0.65266636     0.88700
C2922       C  0.67371607  0.63819003  0.63208461    -0.51500
C2923       C  0.65650456  0.62257902  0.61301140     0.11600
C2924       C  0.62307498  0.62836660  0.61614208     0.22600
C2925       C  0.63641173  0.67853992  0.63288124    -0.52300
C2926       C  0.61956188  0.66267794  0.61373980     0.11700
C2927       C  0.63321676  0.63673829  0.66710369    -0.51800
C2928       C  0.61646406  0.62106625  0.64777364     0.12300
H2929       H  0.69779142  0.63618319  0.63282739     0.16800
H2930       H  0.60924237  0.61549244  0.60057046     0.02600
H2931       H  0.63636085  0.70302410  0.63389376     0.17100
H2932       H  0.63140018  0.63371763  0.69028997     0.16900
N2933       N  0.50259441  0.95413746  0.66591912    -0.34400
N2934       N  0.95625747  0.50032919  0.66537661    -0.55000
N2935       N  0.50213588  0.54620467  0.66355702    -0.34400
N2936       N  0.54849892  0.50008981  0.66701573    -0.55000
C2937       C  0.97823113  0.93698904  0.67037926     0.29200
C2938       C  0.52669797  0.93698620  0.67231162     0.29200
C2939       C  0.97786566  0.56367275  0.66840362     0.29200
C2940       C  0.52634643  0.56351818  0.66815823     0.29200
C2941       C  0.93916232  0.97585563  0.66056325     0.37800
C2942       C  0.93883670  0.52476860  0.66057667     0.37800
C2943       C  0.56601085  0.97545446  0.66375689     0.37800
C2944       C  0.56571078  0.52427591  0.66139416     0.37800
C2945       C  0.98695022  0.90851135  0.67958749    -0.19700
C2946       C  0.51751998  0.90852270  0.68085002    -0.19700
C2947       C  0.98679398  0.59250104  0.67602231    -0.19700
C2948       C  0.51737344  0.59241851  0.67582253    -0.19700
C2949       C  0.91053873  0.98479297  0.65318139    -0.20700
C2950       C  0.91031654  0.51578639  0.65325845    -0.20700
C2951       C  0.59470633  0.98405355  0.65661850    -0.20700
C2952       C  0.59450328  0.51500770  0.65507687    -0.20700
C2953       C  0.94855822  0.94563806  0.66436069    -0.16100
C2954       C  0.55667807  0.94543048  0.66819313    -0.16100
C2955       C  0.55617777  0.55460268  0.66352332    -0.16100
C2956       C  0.94801049  0.55501441  0.66388980    -0.16100
H2957       H  0.97277062  0.88954035  0.68450386     0.16800
H2958       H  0.53143370  0.88953533  0.68684601     0.16800
H2959       H  0.97272898  0.61176105  0.68076215     0.16800
H2960       H  0.53140660  0.61158846  0.68043128     0.16800
H2961       H  0.89170092  0.97050044  0.64849375     0.15100
H2962       H  0.89131701  0.53004932  0.64854264     0.15100
H2963       H  0.61379721  0.96956849  0.65298414     0.15100
H2964       H  0.61343198  0.52907014  0.65011454     0.15100
H2965       H  0.50285252  0.97481523  0.65548604     0.28400
H2966       H  0.50223800  0.52504128  0.65403462     0.28400
N2967       N  0.67108623  0.95792826  0.50089030    -0.34400
N2968       N  0.67533602  0.50341651  0.95625942    -0.55000
N2969       N  0.67619979  0.54927775  0.50113413    -0.34400
N2970       N  0.67417002  0.50348645  0.54575902    -0.55000
C2971       C  0.67580939  0.94043237  0.97747028     0.29200
C2972       C  0.67563180  0.94047822  0.52437422     0.29200
C2973       C  0.68314424  0.56602124  0.97772444     0.29200
C2974       C  0.68240961  0.56601824  0.52475990     0.29200
C2975       C  0.66820802  0.97944329  0.93968761     0.37800
C2976       C  0.67131079  0.52818804  0.93974654     0.37800
C2977       C  0.66658636  0.97942081  0.56197355     0.37800
C2978       C  0.66916676  0.52817764  0.56214124     0.37800
C2979       C  0.68356907  0.91149187  0.98614499    -0.19700
C2980       C  0.68351306  0.91153038  0.51579019    -0.19700
C2981       C  0.69400475  0.59375788  0.98656554    -0.19700
C2982       C  0.69357768  0.59373698  0.51627262    -0.19700
C2983       C  0.66022516  0.98893231  0.91225543    -0.20700
C2984       C  0.66219706  0.51987321  0.91228083    -0.20700
C2985       C  0.65719272  0.98877807  0.58903562    -0.20700
C2986       C  0.65880242  0.51974471  0.58913787    -0.20700
C2987       C  0.67024938  0.94912238  0.94873003    -0.16100
C2988       C  0.66960917  0.94915464  0.55304109    -0.16100
C2989       C  0.67543553  0.55798796  0.55345962    -0.16100
C2990       C  0.67709818  0.55800126  0.94881629    -0.16100
H2991       H  0.68804980  0.89215628  0.97253207     0.16800
H2992       H  0.68788288  0.89221413  0.52945498     0.16800
H2993       H  0.70087876  0.61232638  0.97300147     0.16800
H2994       H  0.70001155  0.61230921  0.53004360     0.16800
H2995       H  0.65378933  0.97503574  0.89412276     0.15100
H2996       H  0.65754355  0.53452855  0.89414407     0.15100
H2997       H  0.65007222  0.97477379  0.60683965     0.15100
H2998       H  0.65316388  0.53433646  0.60706330     0.15100
H2999       H  0.66101437  0.97904798  0.50082981     0.28400
H3000       H  0.66391517  0.52952472  0.50092311     0.28400
N3001       N  0.50523821  0.69427511  0.54571168    -0.34400
N3002       N  0.95994956  0.69442892  0.50084454    -0.55000
N3003       N  0.50545450  0.69514986  0.95595946    -0.34400
N3004       N  0.55102205  0.69299186  0.50089875    -0.55000
C3005       C  0.98094036  0.68688799  0.56147084     0.29200
C3006       C  0.52946984  0.68728962  0.56176688     0.29200
C3007       C  0.98115049  0.68834598  0.93997467     0.29200
C3008       C  0.52969290  0.68843970  0.93979136     0.29200
C3009       C  0.94207798  0.69660118  0.52416390     0.37800
C3010       C  0.94220249  0.69709294  0.97749746     0.37800
C3011       C  0.56882133  0.69496737  0.52435717     0.37800
C3012       C  0.56894473  0.69502070  0.97752808     0.37800
C3013       C  0.98986252  0.67618887  0.58823791    -0.19700
C3014       C  0.52041172  0.67652808  0.58846705    -0.19700
C3015       C  0.99007405  0.67851617  0.91290080    -0.19700
C3016       C  0.52062690  0.67864791  0.91274985    -0.19700
C3017       C  0.91289332  0.70147068  0.51560675    -0.20700
C3018       C  0.91298002  0.70180630  0.98603302    -0.20700
C3019       C  0.59816236  0.69846461  0.51582018    -0.20700
C3020       C  0.59825242  0.69842225  0.98620696    -0.20700
C3021       C  0.95092625  0.68959417  0.55255529    -0.16100
C3022       C  0.55953880  0.69025931  0.55315964    -0.16100
C3023       C  0.55976864  0.69061856  0.94864703    -0.16100
C3024       C  0.95113403  0.69058577  0.94901866    -0.16100
H3025       H  0.97584454  0.66861303  0.60575072     0.16800
H3026       H  0.53434181  0.66912448  0.60617091     0.16800
H3027       H  0.97605145  0.67156543  0.89515006     0.16800
H3028       H  0.53454895  0.67169937  0.89487308     0.16800
H3029       H  0.89339754  0.70316295  0.52922060     0.15100
H3030       H  0.89354546  0.70379731  0.97236978     0.15100
H3031       H  0.61761421  0.69988607  0.52950010     0.15100
H3032       H  0.61776426  0.69989843  0.97261495     0.15100
H3033       H  0.50533287  0.70531421  0.52597105     0.28400
H3034       H  0.50552694  0.70541490  0.97607297     0.28400
C3035       C  0.84713987  0.65722536  0.64283078     0.88700
C3036       C  0.86836971  0.63740518  0.66094703    -0.51500
C3037       C  0.88707732  0.62017362  0.64445292     0.11600
C3038       C  0.88303546  0.62440960  0.61191111     0.22600
C3039       C  0.86744900  0.67577546  0.62313271    -0.52300
C3040       C  0.88633836  0.65852229  0.60707375     0.11700
C3041       C  0.83102243  0.63507822  0.62286236    -0.51800
C3042       C  0.84997548  0.61775775  0.60689255     0.12300
H3043       H  0.86821898  0.63666379  0.68436346     0.16800
H3044       H  0.89835183  0.61032255  0.59866481     0.02600
H3045       H  0.86731901  0.70027539  0.62238252     0.17100
H3046       H  0.80700552  0.63258515  0.62216672     0.16900
N3047       N  0.82651674  0.53916791  0.50135503    -0.34400
N3048       N  0.82417985  0.99367265  0.95645147    -0.55000
N3049       N  0.82514865  0.94750206  0.50137269    -0.34400
N3050       N  0.82485262  0.99361502  0.54623743    -0.55000
C3051       C  0.82127817  0.55651095  0.97794113     0.29200
C3052       C  0.82136406  0.55646740  0.52482486     0.29200
C3053       C  0.82009038  0.93022494  0.97778811     0.29200
C3054       C  0.82028043  0.93022077  0.52499090     0.29200
C3055       C  0.83066336  0.51801313  0.94007312     0.37800
C3056       C  0.82937690  0.96914055  0.93986891     0.37800
C3057       C  0.83134443  0.51797522  0.56258004     0.37800
C3058       C  0.83007531  0.96909897  0.56281474     0.37800
C3059       C  0.81233204  0.58510458  0.98659859    -0.19700
C3060       C  0.81231211  0.58505849  0.51624407    -0.19700
C3061       C  0.81194594  0.90150453  0.98653764    -0.19700
C3062       C  0.81202249  0.90151567  0.51628580    -0.19700
C3063       C  0.83924701  0.50899205  0.91268148    -0.20700
C3064       C  0.83842983  0.97801154  0.91253322    -0.20700
C3065       C  0.84013060  0.50897651  0.58992246    -0.20700
C3066       C  0.83923343  0.97798518  0.59011696    -0.20700
C3067       C  0.82784845  0.54823724  0.94930197    -0.16100
C3068       C  0.82810392  0.54817637  0.55342802    -0.16100
C3069       C  0.82566775  0.93891466  0.55396427    -0.16100
C3070       C  0.82527030  0.93892900  0.94878919    -0.16100
H3071       H  0.80721970  0.60426144  0.97296526     0.16800
H3072       H  0.80724822  0.60419744  0.52992239     0.16800
H3073       H  0.80706707  0.88233756  0.97290302     0.16800
H3074       H  0.80724066  0.88234510  0.52994257     0.16800
H3075       H  0.84550270  0.52321839  0.89472753     0.15100
H3076       H  0.84402715  0.96368265  0.89440212     0.15100
H3077       H  0.84637619  0.52322595  0.60786709     0.15100
H3078       H  0.84481305  0.96366658  0.60825720     0.15100
H3079       H  0.83763244  0.51859577  0.50130031     0.28400
H3080       H  0.83515162  0.96849463  0.50131766     0.28400
C3081       C  0.84008004  0.59323115  0.58903317    -0.11100
C3082       C  0.83354392  0.57228838  0.57377704    -0.12600
C3083       C  0.90862656  0.67134592  0.58842961    -0.11100
C3084       C  0.92779076  0.68091752  0.57272586    -0.12600
C3085       C  0.92580225  0.57874727  0.66116879    -0.11100
C3086       C  0.90786607  0.59830801  0.65579835    -0.12600
C3087       C  0.59995275  0.67644126  0.59284439    -0.11100
C3088       C  0.58227114  0.68450713  0.57478697    -0.12600
C3089       C  0.66786807  0.60106958  0.59244227    -0.11100
C3090       C  0.67313528  0.58179372  0.57478843    -0.12600
C3091       C  0.57809662  0.57817843  0.66038509    -0.11100
C3092       C  0.59564436  0.59807069  0.65591653    -0.12600
C3093       C  0.57168723  0.82148411  0.57651940    -0.11100
C3094       C  0.59104425  0.82884372  0.59323192    -0.12600
C3095       C  0.65956429  0.90498711  0.59007407    -0.11100
C3096       C  0.66508079  0.92543687  0.57392161    -0.12600
C3097       C  0.57877382  0.92155514  0.66647411    -0.11100
C3098       C  0.59636260  0.90170997  0.66112811    -0.12600
C3099       C  0.91942223  0.81584007  0.57678394    -0.11100
C3100       C  0.90229605  0.82351199  0.59561629    -0.12600
C3101       C  0.83408596  0.89728797  0.59438266    -0.11100
C3102       C  0.82841689  0.91547976  0.57574600    -0.12600
C3103       C  0.92655658  0.92199286  0.66163236    -0.11100
C3104       C  0.90844116  0.90246870  0.65758173    -0.12600
C3105       C  0.57857513  0.57793087  0.84223100    -0.11100
C3106       C  0.59636107  0.59756459  0.84684085    -0.12600
C3107       C  0.67488857  0.58192816  0.92763746    -0.11100
C3108       C  0.66933873  0.60116811  0.91004924    -0.12600
C3109       C  0.60040109  0.67598751  0.90939520    -0.11100
C3110       C  0.58257895  0.68438084  0.92719864    -0.12600
C3111       C  0.57196161  0.82091174  0.92691628    -0.11100
C3112       C  0.59115209  0.82816195  0.91001271    -0.12600
C3113       C  0.57840604  0.92131395  0.83640930    -0.11100
C3114       C  0.59570011  0.90124645  0.84186304    -0.12600
C3115       C  0.66526635  0.92537893  0.92792409    -0.11100
C3116       C  0.65936810  0.90479056  0.91202751    -0.12600
C3117       C  0.84051920  0.59315902  0.91371276    -0.11100
C3118       C  0.83369980  0.57234005  0.92902484    -0.12600
C3119       C  0.92613437  0.57912136  0.84074114    -0.11100
C3120       C  0.90815301  0.59854492  0.84639367    -0.12600
C3121       C  0.90887044  0.67171081  0.91346785    -0.11100
C3122       C  0.92806538  0.68165906  0.92890386    -0.12600
C3123       C  0.83422674  0.89729782  0.90847101    -0.11100
C3124       C  0.82831497  0.91546080  0.92706932    -0.12600
C3125       C  0.91973344  0.81610536  0.92592728    -0.11100
C3126       C  0.90266117  0.82376985  0.90704002    -0.12600
C3127       C  0.92636292  0.92231103  0.84042376    -0.11100
C3128       C  0.90834175  0.90277946  0.84485839    -0.12600
C3129       C  0.81623640  0.81133104  0.80713673    -0.11100
C3130       C  0.83027365  0.82626415  0.82430895    -0.12600
C3131       C  0.82662928  0.67568812  0.84254382    -0.11100
C3132       C  0.81125205  0.69174016  0.82768472    -0.12600
C3133       C  0.67659649  0.82346542  0.84068536    -0.11100
C3134       C  0.69462024  0.80868655  0.82737427    -0.12600
C3135       C  0.81621577  0.81135448  0.69579682    -0.11100
C3136       C  0.83020452  0.82624694  0.67856489    -0.12600
C3137       C  0.68793215  0.69072075  0.81273191    -0.11100
C3138       C  0.67377220  0.67494063  0.82881580    -0.12600
C3139       C  0.69523545  0.80909515  0.67506445    -0.11100
C3140       C  0.67736050  0.82397843  0.66166186    -0.12600
C3141       C  0.81152399  0.69200222  0.67503233    -0.11100
C3142       C  0.82686580  0.67603473  0.66004793    -0.12600
C3143       C  0.68783914  0.69096006  0.68946293    -0.11100
C3144       C  0.67347900  0.67528926  0.67340410    -0.12600
loop_ 
_geom_bond_atom_site_label_1 
_geom_bond_atom_site_label_2 
_geom_bond_distance 
_geom_bond_site_symmetry_2 
_ccdc_geom_bond_type 
O1            C9   1.272       .  A
O1          Co21   1.903       .  S
O2           C10   1.261       .  A
O2          Co22   1.990       .  S
O3           C11   1.296       .  A
O3          Co23   2.070       .  S
O4           C12   1.266       .  A
O4          Co24   2.018       .  S
O5           C11   1.272       .  A
O5          Co22   1.903       .  S
O6           C12   1.261       .  A
O6          Co21   1.990       .  S
O7           C10   1.266       .  A
O7          Co24   2.019       .  S
O8            C9   1.297       .  A
O8          Co23   2.071       .  S
C9          C388   1.440       .  S
C10         C378   1.448       .  S
C11         C383   1.439       .  S
C12         C384   1.448       .  S
O13          C26   1.270       .  A
O13         Co21   2.015       .  S
O14          C27   1.243       .  A
O14         Co22   1.964       .  S
O15          C28   1.252       .  A
O15         Co23   2.001       .  S
O16          C29   1.260       .  A
O16         Co24   1.972       .  S
O17          C29   1.270       .  A
O17         Co22   2.016       .  S
O18          C28   1.243       .  A
O18         Co21   1.967       .  S
O19          C26   1.260       .  A
O19         Co24   1.972       .  S
O20          C27   1.252       .  A
O20         Co23   2.001       .  S
Co21         O25   1.938       .  S
Co22         O25   1.940       .  S
Co23         O25   2.259       .  S
Co24         O25   2.085       .  S
C26         C390   1.434       .  S
C27         C386   1.435       .  S
C28         C392   1.437       .  S
C29         C381   1.434       .  S
C30          C31   1.537       .  S
C30          C36   1.542       .  S
C30          C34   1.546       .  S
C30         C379   1.483       .  S
C31          H38   1.086       .  S
C31          C32   1.364       .  D
C32          C33   1.533       .  S
C32         C377   1.442       .  S
C33          C37   1.532       .  S
C33          C35   1.533       .  S
C33          H39   1.112       .  S
C34          H40   1.086       .  S
C34          C35   1.369       .  D
C35         C375   1.450       .  S
C36          H41   1.086       .  S
C36          C37   1.367       .  D
C37         C372   1.445       .  S
C42          C43   1.534       .  S
C42          C48   1.542       .  S
C42          C46   1.533       .  S
C42         C380   1.468       .  S
C43          H50   1.087       .  S
C43          C44   1.363       .  D
C44          C45   1.536       .  S
C44         C366   1.440       .  S
C45          C49   1.532       .  S
C45          C47   1.537       .  S
C45          H51   1.112       .  S
C46          H52   1.087       .  S
C46          C47   1.361       .  D
C47         C370   1.442       .  S
C48          H53   1.086       .  S
C48          C49   1.367       .  D
C49         C369   1.442       .  S
C54          C55   1.534       .  S
C54          C60   1.541       .  S
C54          C58   1.541       .  S
C54         C382   1.473       .  S
C55          H62   1.087       .  S
C55          C56   1.361       .  D
C56          C57   1.532       .  S
C56         C365   1.437       .  S
C57          C61   1.530       .  S
C57          C59   1.535       .  S
C57          H63   1.112       .  S
C58          H64   1.086       .  S
C58          C59   1.367       .  D
C59         C361   1.448       .  S
C60          H65   1.086       .  S
C60          C61   1.366       .  D
C61         C363   1.439       .  S
C66          C67   1.536       .  S
C66          C72   1.539       .  S
C66          C70   1.539       .  S
C66         C387   1.469       .  S
C67          H74   1.087       .  S
C67          C68   1.363       .  D
C68          C69   1.532       .  S
C68         C355   1.438       .  S
C69          C73   1.531       .  S
C69          C71   1.533       .  S
C69          H75   1.112       .  S
C70          H76   1.086       .  S
C70          C71   1.364       .  D
C71         C358   1.444       .  S
C72          H77   1.086       .  S
C72          C73   1.365       .  D
C73         C357   1.440       .  S
N78         H110   1.037       .  S
N78          C82   1.353       .  A
N78        C1655   1.353   1_455  A
N79          C87   1.351       .  A
N79         C872   1.352   1_545  A
N80         H111   1.037       .  S
N80          C84   1.352       .  A
N80        C1657   1.353   1_455  A
N81          C89   1.352       .  A
N81         C874   1.352   1_545  A
C82          C90   1.388       .  A
C82          C98   1.414       .  A
C83        N1650   1.353       .  A
C83          C99   1.414       .  A
C83          C91   1.387       .  A
C84          C92   1.388       .  A
C84         C101   1.414       .  A
C85        N1652   1.353       .  A
C85         C100   1.414       .  A
C85          C93   1.388       .  A
C86         N865   1.352       .  A
C86          C98   1.413       .  A
C86          C94   1.387       .  A
C87         C101   1.413       .  A
C87          C95   1.388       .  A
C88         N867   1.352       .  A
C88          C96   1.387       .  A
C88          C99   1.414       .  A
C89          C97   1.387       .  A
C89         C100   1.414       .  A
C90        C1663   1.375   1_455  A
C90         H102   1.082       .  S
C91        C1662   1.375       .  A
C91         H103   1.082       .  S
C92        C1665   1.375   1_455  A
C92         H104   1.082       .  S
C93        C1664   1.375       .  A
C93         H105   1.082       .  S
C94         C881   1.374       .  A
C94         H106   1.083       .  S
C95         C880   1.374   1_545  A
C95         H107   1.083       .  S
C96         C883   1.374       .  A
C96         H108   1.083       .  S
C97         C882   1.374   1_545  A
C97         H109   1.082       .  S
C98         C362   1.450       .  S
C99         C376   1.451       .  S
C100        C368   1.452       .  S
C101        C354   1.448       .  S
C112        C113   1.542       .  S
C112        C118   1.537       .  S
C112        C116   1.546       .  S
C112        C385   1.483       .  S
C113        H120   1.086       .  S
C113        C114   1.367       .  D
C114        C115   1.531       .  S
C114        C350   1.444       .  S
C115        C119   1.533       .  S
C115        C117   1.532       .  S
C115        H121   1.112       .  S
C116        H122   1.086       .  S
C116        C117   1.369       .  D
C117        C349   1.450       .  S
C118        H123   1.086       .  S
C118        C119   1.364       .  D
C119        C353   1.442       .  S
C124        C125   1.541       .  S
C124        C130   1.534       .  S
C124        C128   1.542       .  S
C124        C389   1.473       .  S
C125        H132   1.086       .  S
C125        C126   1.366       .  D
C126        C127   1.530       .  S
C126        C347   1.440       .  S
C127        C131   1.532       .  S
C127        C129   1.535       .  S
C127        H133   1.112       .  S
C128        H134   1.086       .  S
C128        C129   1.367       .  D
C129        C343   1.450       .  S
C130        H135   1.087       .  S
C130        C131   1.361       .  D
C131        C344   1.436       .  S
N136        H168   1.037       .  S
N136        C140   1.356       .  A
N136        C534   1.355   1_554  A
N137        C144   1.355   1_655  A
N137       C1717   1.353       .  A
N138        H169   1.038       .  S
N138        C142   1.358       .  A
N138        C536   1.358   1_554  A
N139        C146   1.354   1_655  A
N139       C1719   1.353       .  A
C140        C148   1.388       .  A
C140        C156   1.418       .  A
C141        N529   1.355       .  A
C141        C157   1.417       .  A
C141        C149   1.388       .  A
C142        C150   1.388       .  A
C142        C159   1.422       .  A
C143        N531   1.358       .  A
C143        C158   1.421       .  A
C143        C151   1.388       .  A
C144        C156   1.416       .  A
C144        C152   1.386       .  A
C145       N1709   1.353       .  A
C145        C159   1.417       .  A
C145        C153   1.388       .  A
C146        C154   1.386       .  A
C146        C157   1.416       .  A
C147       N1711   1.353       .  A
C147        C155   1.387       .  A
C147        C158   1.416       .  A
C148        C542   1.373   1_554  A
C148        H160   1.082       .  S
C149        C541   1.373       .  A
C149        H161   1.082       .  S
C150        C544   1.377   1_554  A
C150        H162   1.082       .  S
C151        C543   1.377       .  A
C151        H163   1.083       .  S
C152       C1725   1.374   1_455  A
C152        H164   1.082       .  S
C153       C1724   1.374       .  A
C153        H165   1.082       .  S
C154       C1727   1.374   1_455  A
C154        H166   1.082       .  S
C155       C1726   1.374       .  A
C155        H167   1.082       .  S
C156        C342   1.459       .  S
C157        C360   1.458       .  S
C158        C374   1.460       .  S
C159        C348   1.460       .  S
C170        C171   1.540       .  S
C170        C176   1.536       .  S
C170        C174   1.540       .  S
C170        C393   1.471       .  S
C171        H178   1.086       .  S
C171        C172   1.366       .  D
C172        C173   1.530       .  S
C172        C338   1.440       .  S
C173        C177   1.531       .  S
C173        C175   1.533       .  S
C173        H179   1.112       .  S
C174        H180   1.086       .  S
C174        C175   1.364       .  D
C175        C336   1.443       .  S
C176        H181   1.086       .  S
C176        C177   1.363       .  D
C177        C341   1.438       .  S
N182        H214   1.037       .  S
N182        C187   1.353       .  A
N182       C1758   1.353   1_455  A
N183        C191   1.352       .  A
N183        C976   1.352   1_545  A
N184        H215   1.037       .  S
N184        C189   1.352       .  A
N184       C1760   1.354   1_455  A
N185        C193   1.351       .  A
N185        C978   1.351   1_545  A
C186       N1754   1.353       .  A
C186        C194   1.387       .  A
C186        C202   1.414       .  A
C187        C203   1.414       .  A
C187        C195   1.387       .  A
C188       N1756   1.354       .  A
C188        C196   1.387       .  A
C188        C205   1.414       .  A
C189        C204   1.413       .  A
C189        C197   1.387       .  A
C190        N969   1.352       .  A
C190        C202   1.414       .  A
C190        C198   1.387       .  A
C191        C205   1.413       .  A
C191        C199   1.387       .  A
C192        N971   1.351       .  A
C192        C200   1.387       .  A
C192        C203   1.413       .  A
C193        C201   1.387       .  A
C193        C204   1.412       .  A
C194       C1767   1.376       .  A
C194        H206   1.082       .  S
C195       C1766   1.376   1_455  A
C195        H207   1.082       .  S
C196       C1769   1.375       .  A
C196        H208   1.082       .  S
C197       C1768   1.375   1_455  A
C197        H209   1.082       .  S
C198        C985   1.374       .  A
C198        H210   1.082       .  S
C199        C984   1.374   1_545  A
C199        H211   1.082       .  S
C200        C987   1.374       .  A
C200        H212   1.082       .  S
C201        C986   1.374   1_545  A
C201        H213   1.082       .  S
C202        C352   1.451       .  S
C203        C346   1.450       .  S
C204        C340   1.448       .  S
C205        C334   1.452       .  S
N216        H248   1.038       .  S
N216        C221   1.351       .  A
N216        C613   1.351   1_554  A
N217        C225   1.350       .  A
N217       C1010   1.351   1_545  A
N218        H249   1.038       .  S
N218        C223   1.353       .  A
N218        C615   1.352   1_554  A
N219        C227   1.350       .  A
N219       C1012   1.350   1_545  A
C220        N609   1.351       .  A
C220        C228   1.387       .  A
C220        C236   1.409       .  A
C221        C237   1.410       .  A
C221        C229   1.388       .  A
C222        N611   1.352       .  A
C222        C230   1.387       .  A
C222        C239   1.413       .  A
C223        C238   1.413       .  A
C223        C231   1.387       .  A
C224       N1003   1.351       .  A
C224        C236   1.411       .  A
C224        C232   1.386       .  A
C225        C239   1.412       .  A
C225        C233   1.388       .  A
C226       N1005   1.350       .  A
C226        C234   1.387       .  A
C226        C237   1.410       .  A
C227        C235   1.388       .  A
C227        C238   1.411       .  A
C228        C622   1.374       .  A
C228        H240   1.082       .  S
C229        C621   1.374   1_554  A
C229        H241   1.082       .  S
C230        C624   1.378       .  A
C230        H242   1.082       .  S
C231        C623   1.378   1_554  A
C231        H243   1.082       .  S
C232       C1019   1.375       .  A
C232        H244   1.082       .  S
C233       C1018   1.375   1_545  A
C233        H245   1.082       .  S
C234       C1021   1.375       .  A
C234        H246   1.082       .  S
C235       C1020   1.375   1_545  A
C235        H247   1.082       .  S
C236        C364   1.446       .  S
C237        C345   1.445       .  S
C238        C339   1.449       .  S
C239        C356   1.449       .  S
N250        H282   1.038       .  S
N250        C255   1.354       .  A
N250       C1826   1.356   1_455  A
N251        C258   1.350       .  A
N251        C652   1.350   1_554  A
N252        H283   1.038       .  S
N252        C257   1.355       .  A
N252       C1828   1.356   1_455  A
N253        C260   1.353       .  A
N253        C654   1.353   1_554  A
C254       N1822   1.356       .  A
C254        C262   1.387       .  A
C254        C270   1.416       .  A
C255        C271   1.416       .  A
C255        C263   1.389       .  A
C256       N1824   1.356       .  A
C256        C264   1.387       .  A
C256        C273   1.416       .  A
C257        C272   1.417       .  A
C257        C265   1.389       .  A
C258        C270   1.409       .  A
C258        C266   1.387       .  A
C259        N644   1.350       .  A
C259        C273   1.409       .  A
C259        C267   1.387       .  A
C260        C268   1.387       .  A
C260        C271   1.415       .  A
C261        N646   1.353       .  A
C261        C269   1.387       .  A
C261        C272   1.415       .  A
C262       C1835   1.374       .  A
C262        H274   1.082       .  S
C263       C1834   1.374   1_455  A
C263        H275   1.082       .  S
C264       C1837   1.374       .  A
C264        H276   1.082       .  S
C265       C1836   1.374   1_455  A
C265        H277   1.082       .  S
C266        C660   1.371   1_554  A
C266        H278   1.082       .  S
C267        C659   1.371       .  A
C267        H279   1.083       .  S
C268        C662   1.373   1_554  A
C268        H280   1.082       .  S
C269        C661   1.373       .  A
C269        H281   1.082       .  S
C270        C333   1.452       .  S
C271        C337   1.453       .  S
C272        C359   1.454       .  S
C273        C371   1.451       .  S
C284        C285   1.543       .  S
C284        C290   1.534       .  S
C284        C288   1.534       .  S
C284        C391   1.468       .  S
C285        H292   1.086       .  S
C285        C286   1.367       .  D
C286        C287   1.531       .  S
C286        C335   1.442       .  S
C287        C291   1.535       .  S
C287        C289   1.537       .  S
C287        H293   1.112       .  S
C288        H294   1.087       .  S
C288        C289   1.362       .  D
C289        C332   1.443       .  S
C290        H295   1.087       .  S
C290        C291   1.363       .  D
C291        C330   1.439       .  S
N296        H328   1.038       .  S
N296        C301   1.351       .  A
N296        C693   1.351   1_554  A
N297        C305   1.351       .  A
N297       C1090   1.353       .  A
N298        H329   1.036       .  S
N298        C303   1.355       .  A
N298        C695   1.355   1_554  A
N299        C307   1.351       .  A
N299       C1092   1.352       .  A
C300        N689   1.351       .  A
C300        C308   1.387       .  A
C300        C316   1.408       .  A
C301        C317   1.409       .  A
C301        C309   1.388       .  A
C302        N691   1.355       .  A
C302        C310   1.387       .  A
C302        C319   1.418       .  A
C303        C318   1.419       .  A
C303        C311   1.387       .  A
C304       N1083   1.353   1_545  A
C304        C316   1.412       .  A
C304        C312   1.386       .  A
C305        C319   1.415       .  A
C305        C313   1.389       .  A
C306       N1085   1.352   1_545  A
C306        C314   1.386       .  A
C306        C317   1.411       .  A
C307        C315   1.389       .  A
C307        C318   1.415       .  A
C308        C702   1.375       .  A
C308        H320   1.082       .  S
C309        C701   1.375   1_554  A
C309        H321   1.082       .  S
C310        C704   1.379       .  A
C310        H322   1.082       .  S
C311        C703   1.379   1_554  A
C311        H323   1.082       .  S
C312       C1099   1.374   1_545  A
C312        H324   1.083       .  S
C313       C1098   1.374       .  A
C313        H325   1.082       .  S
C314       C1101   1.375   1_545  A
C314        H326   1.083       .  S
C315       C1100   1.375       .  A
C315        H327   1.082       .  S
C316        C367   1.448       .  S
C317        C331   1.448       .  S
C318        C351   1.454       .  S
C319        C373   1.454       .  S
C330        C331   1.205       .  T
C332        C333   1.207       .  T
C334        C335   1.207       .  T
C336        C337   1.207       .  T
C338        C339   1.206       .  T
C340        C341   1.204       .  T
C342        C343   1.211       .  T
C344        C345   1.203       .  T
C346        C347   1.206       .  T
C348        C349   1.212       .  T
C350        C351   1.208       .  T
C352        C353   1.206       .  T
C354        C355   1.204       .  T
C356        C357   1.205       .  T
C358        C359   1.208       .  T
C360        C361   1.210       .  T
C362        C363   1.205       .  T
C364        C365   1.204       .  T
C366        C367   1.205       .  T
C368        C369   1.207       .  T
C370        C371   1.206       .  T
C372        C373   1.208       .  T
C374        C375   1.212       .  T
C376        C377   1.207       .  T
C378        C379   1.214       .  T
C380        C381   1.206       .  T
C382        C383   1.209       .  T
C384        C385   1.214       .  T
C386        C387   1.207       .  T
C388        C389   1.209       .  T
C390        C391   1.206       .  T
C392        C393   1.208       .  T
O394        C402   1.272       .  A
O394       Co414   1.903       .  S
O395        C403   1.261       .  A
O395       Co415   1.990       .  S
O396        C404   1.296       .  A
O396       Co416   2.070       .  S
O397        C405   1.266       .  A
O397       Co417   2.018       .  S
O398        C404   1.272       .  A
O398       Co415   1.903       .  S
O399        C405   1.261       .  A
O399       Co414   1.990       .  S
O400        C403   1.266       .  A
O400       Co417   2.019       .  S
O401        C402   1.297       .  A
O401       Co416   2.071       .  S
C402        C781   1.440       .  S
C403        C771   1.448       .  S
C404        C776   1.439       .  S
C405        C777   1.448       .  S
O406        C419   1.270       .  A
O406       Co414   2.015       .  S
O407        C420   1.243       .  A
O407       Co415   1.965       .  S
O408        C421   1.252       .  A
O408       Co416   2.002       .  S
O409        C422   1.260       .  A
O409       Co417   1.972       .  S
O410        C422   1.270       .  A
O410       Co415   2.016       .  S
O411        C421   1.243       .  A
O411       Co414   1.967       .  S
O412        C419   1.260       .  A
O412       Co417   1.972       .  S
O413        C420   1.252       .  A
O413       Co416   2.001       .  S
Co414       O418   1.938       .  S
Co415       O418   1.940       .  S
Co416       O418   2.259       .  S
Co417       O418   2.085       .  S
C419        C783   1.434       .  S
C420        C779   1.435       .  S
C421        C785   1.437       .  S
C422        C774   1.434       .  S
C423        C424   1.537       .  S
C423        C429   1.542       .  S
C423        C427   1.546       .  S
C423        C772   1.483       .  S
C424        H431   1.086       .  S
C424        C425   1.364       .  D
C425        C426   1.533       .  S
C425        C770   1.442       .  S
C426        C430   1.532       .  S
C426        C428   1.533       .  S
C426        H432   1.112       .  S
C427        H433   1.086       .  S
C427        C428   1.369       .  D
C428        C768   1.451       .  S
C429        H434   1.086       .  S
C429        C430   1.367       .  D
C430        C765   1.445       .  S
C435        C436   1.534       .  S
C435        C441   1.542       .  S
C435        C439   1.533       .  S
C435        C773   1.468       .  S
C436        H443   1.087       .  S
C436        C437   1.363       .  D
C437        C438   1.536       .  S
C437        C759   1.440       .  S
C438        C442   1.532       .  S
C438        C440   1.537       .  S
C438        H444   1.112       .  S
C439        H445   1.087       .  S
C439        C440   1.361       .  D
C440        C763   1.442       .  S
C441        H446   1.086       .  S
C441        C442   1.367       .  D
C442        C762   1.442       .  S
C447        C448   1.534       .  S
C447        C453   1.541       .  S
C447        C451   1.541       .  S
C447        C775   1.473       .  S
C448        H455   1.087       .  S
C448        C449   1.361       .  D
C449        C450   1.532       .  S
C449        C758   1.437       .  S
C450        C454   1.530       .  S
C450        C452   1.535       .  S
C450        H456   1.112       .  S
C451        H457   1.086       .  S
C451        C452   1.367       .  D
C452        C754   1.448       .  S
C453        H458   1.086       .  S
C453        C454   1.366       .  D
C454        C756   1.439       .  S
C459        C460   1.536       .  S
C459        C465   1.539       .  S
C459        C463   1.539       .  S
C459        C780   1.469       .  S
C460        H467   1.087       .  S
C460        C461   1.363       .  D
C461        C462   1.532       .  S
C461        C748   1.438       .  S
C462        C466   1.531       .  S
C462        C464   1.533       .  S
C462        H468   1.112       .  S
C463        H469   1.086       .  S
C463        C464   1.364       .  D
C464        C751   1.444       .  S
C465        H470   1.086       .  S
C465        C466   1.365       .  D
C466        C750   1.440       .  S
N471        H503   1.037       .  S
N471       C2048   1.353   1_455  A
N471        C475   1.353       .  A
N472       C1265   1.352   1_545  A
N472        C480   1.351       .  A
N473        H504   1.037       .  S
N473       C2050   1.353   1_455  A
N473        C477   1.352       .  A
N474       C1267   1.352   1_545  A
N474        C482   1.352       .  A
C475        C483   1.388       .  A
C475        C491   1.414       .  A
C476       N2043   1.353       .  A
C476        C492   1.414       .  A
C476        C484   1.387       .  A
C477        C485   1.388       .  A
C477        C494   1.414       .  A
C478       N2045   1.353       .  A
C478        C493   1.414       .  A
C478        C486   1.388       .  A
C479       N1258   1.352       .  A
C479        C491   1.413       .  A
C479        C487   1.387       .  A
C480        C494   1.413       .  A
C480        C488   1.388       .  A
C481       N1260   1.352       .  A
C481        C489   1.387       .  A
C481        C492   1.414       .  A
C482        C490   1.387       .  A
C482        C493   1.414       .  A
C483       C2056   1.375   1_455  A
C483        H495   1.082       .  S
C484       C2055   1.375       .  A
C484        H496   1.082       .  S
C485       C2058   1.375   1_455  A
C485        H497   1.082       .  S
C486       C2057   1.375       .  A
C486        H498   1.082       .  S
C487       C1274   1.374       .  A
C487        H499   1.083       .  S
C488       C1273   1.374   1_545  A
C488        H500   1.083       .  S
C489       C1276   1.374       .  A
C489        H501   1.083       .  S
C490       C1275   1.374   1_545  A
C490        H502   1.082       .  S
C491        C755   1.450       .  S
C492        C769   1.451       .  S
C493        C761   1.452       .  S
C494        C747   1.448       .  S
C505        C506   1.542       .  S
C505        C511   1.537       .  S
C505        C509   1.546       .  S
C505        C778   1.483       .  S
C506        H513   1.086       .  S
C506        C507   1.367       .  D
C507        C508   1.531       .  S
C507        C743   1.444       .  S
C508        C512   1.533       .  S
C508        C510   1.532       .  S
C508        H514   1.112       .  S
C509        H515   1.086       .  S
C509        C510   1.369       .  D
C510        C742   1.450       .  S
C511        H516   1.086       .  S
C511        C512   1.364       .  D
C512        C746   1.442       .  S
C517        C518   1.541       .  S
C517        C523   1.534       .  S
C517        C521   1.542       .  S
C517        C782   1.473       .  S
C518        H525   1.086       .  S
C518        C519   1.366       .  D
C519        C520   1.530       .  S
C519        C740   1.440       .  S
C520        C524   1.532       .  S
C520        C522   1.535       .  S
C520        H526   1.112       .  S
C521        H527   1.086       .  S
C521        C522   1.367       .  D
C522        C736   1.450       .  S
C523        H528   1.087       .  S
C523        C524   1.361       .  D
C524        C737   1.436       .  S
N529        H561   1.037       .  S
N529        C533   1.356       .  A
N530        C537   1.355   1_655  A
N530       C2110   1.353       .  A
N531        H562   1.038       .  S
N531        C535   1.358       .  A
N532        C539   1.354   1_655  A
N532       C2112   1.353       .  A
C533        C541   1.388       .  A
C533        C549   1.418       .  A
C534        C550   1.417       .  A
C534        C542   1.388       .  A
C535        C543   1.388       .  A
C535        C552   1.422       .  A
C536        C551   1.421       .  A
C536        C544   1.388       .  A
C537        C549   1.416       .  A
C537        C545   1.386       .  A
C538       N2102   1.353       .  A
C538        C552   1.417       .  A
C538        C546   1.388       .  A
C539        C547   1.386       .  A
C539        C550   1.416       .  A
C540       N2104   1.353       .  A
C540        C548   1.387       .  A
C540        C551   1.416       .  A
C541        H553   1.082       .  S
C542        H554   1.082       .  S
C543        H555   1.082       .  S
C544        H556   1.083       .  S
C545       C2118   1.374   1_455  A
C545        H557   1.082       .  S
C546       C2117   1.374       .  A
C546        H558   1.082       .  S
C547       C2120   1.374   1_455  A
C547        H559   1.082       .  S
C548       C2119   1.374       .  A
C548        H560   1.082       .  S
C549        C735   1.459       .  S
C550        C753   1.458       .  S
C551        C767   1.461       .  S
C552        C741   1.460       .  S
C563        C564   1.540       .  S
C563        C569   1.536       .  S
C563        C567   1.540       .  S
C563        C786   1.471       .  S
C564        H571   1.086       .  S
C564        C565   1.366       .  D
C565        C566   1.530       .  S
C565        C731   1.440       .  S
C566        C570   1.531       .  S
C566        C568   1.533       .  S
C566        H572   1.112       .  S
C567        H573   1.086       .  S
C567        C568   1.364       .  D
C568        C729   1.443       .  S
C569        H574   1.086       .  S
C569        C570   1.363       .  D
C570        C734   1.438       .  S
N575        H607   1.037       .  S
N575        C580   1.353       .  A
N575       C2151   1.353   1_455  A
N576       C1369   1.352   1_545  A
N576        C584   1.352       .  A
N577        H608   1.037       .  S
N577        C582   1.352       .  A
N577       C2153   1.354   1_455  A
N578       C1371   1.351   1_545  A
N578        C586   1.351       .  A
C579       N2147   1.353       .  A
C579        C587   1.387       .  A
C579        C595   1.414       .  A
C580        C596   1.414       .  A
C580        C588   1.387       .  A
C581       N2149   1.354       .  A
C581        C589   1.387       .  A
C581        C598   1.414       .  A
C582        C597   1.413       .  A
C582        C590   1.387       .  A
C583       N1362   1.352       .  A
C583        C595   1.414       .  A
C583        C591   1.387       .  A
C584        C598   1.413       .  A
C584        C592   1.387       .  A
C585       N1364   1.351       .  A
C585        C593   1.387       .  A
C585        C596   1.413       .  A
C586        C594   1.387       .  A
C586        C597   1.412       .  A
C587       C2160   1.376       .  A
C587        H599   1.082       .  S
C588       C2159   1.376   1_455  A
C588        H600   1.082       .  S
C589       C2162   1.375       .  A
C589        H601   1.082       .  S
C590       C2161   1.375   1_455  A
C590        H602   1.082       .  S
C591       C1378   1.374       .  A
C591        H603   1.082       .  S
C592       C1377   1.374   1_545  A
C592        H604   1.082       .  S
C593       C1380   1.374       .  A
C593        H605   1.082       .  S
C594       C1379   1.374   1_545  A
C594        H606   1.082       .  S
C595        C745   1.451       .  S
C596        C739   1.450       .  S
C597        C733   1.448       .  S
C598        C727   1.452       .  S
N609        H641   1.038       .  S
N609        C614   1.351       .  A
N610       C1403   1.351   1_545  A
N610        C618   1.350       .  A
N611        H642   1.038       .  S
N611        C616   1.353       .  A
N612       C1405   1.350   1_545  A
N612        C620   1.350       .  A
C613        C621   1.387       .  A
C613        C629   1.409       .  A
C614        C630   1.409       .  A
C614        C622   1.388       .  A
C615        C623   1.387       .  A
C615        C632   1.413       .  A
C616        C631   1.413       .  A
C616        C624   1.387       .  A
C617       N1396   1.351       .  A
C617        C629   1.411       .  A
C617        C625   1.386       .  A
C618        C632   1.412       .  A
C618        C626   1.388       .  A
C619       N1398   1.350       .  A
C619        C627   1.387       .  A
C619        C630   1.410       .  A
C620        C628   1.388       .  A
C620        C631   1.411       .  A
C621        H633   1.082       .  S
C622        H634   1.082       .  S
C623        H635   1.082       .  S
C624        H636   1.082       .  S
C625       C1412   1.375       .  A
C625        H637   1.082       .  S
C626       C1411   1.375   1_545  A
C626        H638   1.082       .  S
C627       C1414   1.375       .  A
C627        H639   1.082       .  S
C628       C1413   1.375   1_545  A
C628        H640   1.082       .  S
C629        C757   1.446       .  S
C630        C738   1.445       .  S
C631        C732   1.449       .  S
C632        C749   1.449       .  S
N643        H675   1.038       .  S
N643        C648   1.354       .  A
N643       C2219   1.356   1_455  A
N644        C651   1.350       .  A
N645        H676   1.038       .  S
N645        C650   1.355       .  A
N645       C2221   1.356   1_455  A
N646        C653   1.353       .  A
C647       N2215   1.356       .  A
C647        C655   1.387       .  A
C647        C663   1.416       .  A
C648        C664   1.416       .  A
C648        C656   1.389       .  A
C649       N2217   1.356       .  A
C649        C657   1.387       .  A
C649        C666   1.416       .  A
C650        C665   1.417       .  A
C650        C658   1.389       .  A
C651        C663   1.409       .  A
C651        C659   1.387       .  A
C652        C666   1.409       .  A
C652        C660   1.387       .  A
C653        C661   1.387       .  A
C653        C664   1.415       .  A
C654        C662   1.387       .  A
C654        C665   1.415       .  A
C655       C2228   1.374       .  A
C655        H667   1.082       .  S
C656       C2227   1.374   1_455  A
C656        H668   1.082       .  S
C657       C2230   1.374       .  A
C657        H669   1.082       .  S
C658       C2229   1.374   1_455  A
C658        H670   1.082       .  S
C659        H671   1.082       .  S
C660        H672   1.083       .  S
C661        H673   1.082       .  S
C662        H674   1.082       .  S
C663        C726   1.452       .  S
C664        C730   1.453       .  S
C665        C752   1.454       .  S
C666        C764   1.451       .  S
C677        C678   1.543       .  S
C677        C683   1.534       .  S
C677        C681   1.534       .  S
C677        C784   1.468       .  S
C678        H685   1.086       .  S
C678        C679   1.367       .  D
C679        C680   1.531       .  S
C679        C728   1.442       .  S
C680        C684   1.535       .  S
C680        C682   1.537       .  S
C680        H686   1.112       .  S
C681        H687   1.087       .  S
C681        C682   1.362       .  D
C682        C725   1.443       .  S
C683        H688   1.087       .  S
C683        C684   1.363       .  D
C684        C723   1.439       .  S
N689        H721   1.038       .  S
N689        C694   1.351       .  A
N690       C1483   1.353       .  A
N690        C698   1.351       .  A
N691        H722   1.036       .  S
N691        C696   1.355       .  A
N692       C1485   1.352       .  A
N692        C700   1.351       .  A
C693        C701   1.387       .  A
C693        C709   1.408       .  A
C694        C710   1.409       .  A
C694        C702   1.388       .  A
C695        C703   1.387       .  A
C695        C712   1.419       .  A
C696        C711   1.419       .  A
C696        C704   1.387       .  A
C697       N1476   1.353   1_545  A
C697        C709   1.412       .  A
C697        C705   1.386       .  A
C698        C712   1.415       .  A
C698        C706   1.389       .  A
C699       N1478   1.352   1_545  A
C699        C707   1.386       .  A
C699        C710   1.411       .  A
C700        C708   1.389       .  A
C700        C711   1.415       .  A
C701        H713   1.082       .  S
C702        H714   1.082       .  S
C703        H715   1.082       .  S
C704        H716   1.082       .  S
C705       C1492   1.374   1_545  A
C705        H717   1.083       .  S
C706       C1491   1.374       .  A
C706        H718   1.082       .  S
C707       C1494   1.375   1_545  A
C707        H719   1.083       .  S
C708       C1493   1.375       .  A
C708        H720   1.082       .  S
C709        C760   1.449       .  S
C710        C724   1.447       .  S
C711        C744   1.454       .  S
C712        C766   1.454       .  S
C723        C724   1.205       .  T
C725        C726   1.207       .  T
C727        C728   1.207       .  T
C729        C730   1.207       .  T
C731        C732   1.206       .  T
C733        C734   1.204       .  T
C735        C736   1.211       .  T
C737        C738   1.203       .  T
C739        C740   1.206       .  T
C741        C742   1.212       .  T
C743        C744   1.208       .  T
C745        C746   1.206       .  T
C747        C748   1.204       .  T
C749        C750   1.205       .  T
C751        C752   1.208       .  T
C753        C754   1.210       .  T
C755        C756   1.205       .  T
C757        C758   1.204       .  T
C759        C760   1.205       .  T
C761        C762   1.207       .  T
C763        C764   1.206       .  T
C765        C766   1.208       .  T
C767        C768   1.212       .  T
C769        C770   1.207       .  T
C771        C772   1.214       .  T
C773        C774   1.206       .  T
C775        C776   1.209       .  T
C777        C778   1.214       .  T
C779        C780   1.207       .  T
C781        C782   1.209       .  T
C783        C784   1.206       .  T
C785        C786   1.208       .  T
O787        C795   1.272       .  A
O787       Co807   1.903       .  S
O788        C796   1.261       .  A
O788       Co808   1.990       .  S
O789        C797   1.296       .  A
O789       Co809   2.070       .  S
O790        C798   1.266       .  A
O790       Co810   2.018       .  S
O791        C797   1.272       .  A
O791       Co808   1.903       .  S
O792        C798   1.261       .  A
O792       Co807   1.990       .  S
O793        C796   1.266       .  A
O793       Co810   2.019       .  S
O794        C795   1.297       .  A
O794       Co809   2.071       .  S
C795       C1174   1.440       .  S
C796       C1164   1.448       .  S
C797       C1169   1.439       .  S
C798       C1170   1.448       .  S
O799        C812   1.270       .  A
O799       Co807   2.016       .  S
O800        C813   1.243       .  A
O800       Co808   1.964       .  S
O801        C814   1.252       .  A
O801       Co809   2.001       .  S
O802        C815   1.260       .  A
O802       Co810   1.972       .  S
O803        C815   1.270       .  A
O803       Co808   2.016       .  S
O804        C814   1.243       .  A
O804       Co807   1.967       .  S
O805        C812   1.260       .  A
O805       Co810   1.972       .  S
O806        C813   1.252       .  A
O806       Co809   2.001       .  S
Co807       O811   1.938       .  S
Co808       O811   1.940       .  S
Co809       O811   2.259       .  S
Co810       O811   2.085       .  S
C812       C1176   1.434       .  S
C813       C1172   1.435       .  S
C814       C1178   1.437       .  S
C815       C1167   1.434       .  S
C816        C817   1.537       .  S
C816        C822   1.542       .  S
C816        C820   1.546       .  S
C816       C1165   1.483       .  S
C817        H824   1.086       .  S
C817        C818   1.364       .  D
C818        C819   1.533       .  S
C818       C1163   1.442       .  S
C819        C823   1.532       .  S
C819        C821   1.533       .  S
C819        H825   1.112       .  S
C820        H826   1.086       .  S
C820        C821   1.369       .  D
C821       C1161   1.450       .  S
C822        H827   1.086       .  S
C822        C823   1.367       .  D
C823       C1158   1.445       .  S
C828        C829   1.534       .  S
C828        C834   1.542       .  S
C828        C832   1.533       .  S
C828       C1166   1.468       .  S
C829        H836   1.087       .  S
C829        C830   1.363       .  D
C830        C831   1.536       .  S
C830       C1152   1.440       .  S
C831        C835   1.532       .  S
C831        C833   1.537       .  S
C831        H837   1.112       .  S
C832        H838   1.087       .  S
C832        C833   1.361       .  D
C833       C1156   1.442       .  S
C834        H839   1.086       .  S
C834        C835   1.367       .  D
C835       C1155   1.442       .  S
C840        C841   1.534       .  S
C840        C846   1.541       .  S
C840        C844   1.541       .  S
C840       C1168   1.473       .  S
C841        H848   1.087       .  S
C841        C842   1.361       .  D
C842        C843   1.532       .  S
C842       C1151   1.437       .  S
C843        C847   1.530       .  S
C843        C845   1.535       .  S
C843        H849   1.112       .  S
C844        H850   1.086       .  S
C844        C845   1.367       .  D
C845       C1147   1.448       .  S
C846        H851   1.086       .  S
C846        C847   1.366       .  D
C847       C1149   1.439       .  S
C852        C853   1.536       .  S
C852        C858   1.539       .  S
C852        C856   1.539       .  S
C852       C1173   1.469       .  S
C853        H860   1.087       .  S
C853        C854   1.363       .  D
C854        C855   1.532       .  S
C854       C1141   1.438       .  S
C855        C859   1.532       .  S
C855        C857   1.533       .  S
C855        H861   1.112       .  S
C856        H862   1.086       .  S
C856        C857   1.364       .  D
C857       C1144   1.444       .  S
C858        H863   1.086       .  S
C858        C859   1.365       .  D
C859       C1143   1.440       .  S
N864        H896   1.037       .  S
N864       C2441   1.353   1_455  A
N864        C868   1.353       .  A
N865        C873   1.351       .  A
N866        H897   1.037       .  S
N866       C2443   1.353   1_455  A
N866        C870   1.352       .  A
N867        C875   1.352       .  A
C868        C876   1.388       .  A
C868        C884   1.414       .  A
C869       N2436   1.353       .  A
C869        C885   1.414       .  A
C869        C877   1.387       .  A
C870        C878   1.388       .  A
C870        C887   1.414       .  A
C871       N2438   1.353       .  A
C871        C886   1.414       .  A
C871        C879   1.388       .  A
C872        C884   1.413       .  A
C872        C880   1.387       .  A
C873        C887   1.413       .  A
C873        C881   1.388       .  A
C874        C882   1.387       .  A
C874        C885   1.414       .  A
C875        C883   1.387       .  A
C875        C886   1.414       .  A
C876       C2449   1.375   1_455  A
C876        H888   1.082       .  S
C877       C2448   1.375       .  A
C877        H889   1.082       .  S
C878       C2451   1.375   1_455  A
C878        H890   1.082       .  S
C879       C2450   1.375       .  A
C879        H891   1.082       .  S
C880        H892   1.083       .  S
C881        H893   1.083       .  S
C882        H894   1.083       .  S
C883        H895   1.082       .  S
C884       C1148   1.450       .  S
C885       C1162   1.451       .  S
C886       C1154   1.452       .  S
C887       C1140   1.448       .  S
C898        C899   1.542       .  S
C898        C904   1.537       .  S
C898        C902   1.546       .  S
C898       C1171   1.483       .  S
C899        H906   1.086       .  S
C899        C900   1.367       .  D
C900        C901   1.531       .  S
C900       C1136   1.445       .  S
C901        C905   1.533       .  S
C901        C903   1.532       .  S
C901        H907   1.112       .  S
C902        H908   1.086       .  S
C902        C903   1.369       .  D
C903       C1135   1.450       .  S
C904        H909   1.086       .  S
C904        C905   1.364       .  D
C905       C1139   1.442       .  S
C910        C911   1.541       .  S
C910        C916   1.534       .  S
C910        C914   1.542       .  S
C910       C1175   1.473       .  S
C911        H918   1.086       .  S
C911        C912   1.366       .  D
C912        C913   1.530       .  S
C912       C1133   1.440       .  S
C913        C917   1.532       .  S
C913        C915   1.535       .  S
C913        H919   1.112       .  S
C914        H920   1.086       .  S
C914        C915   1.367       .  D
C915       C1129   1.450       .  S
C916        H921   1.087       .  S
C916        C917   1.361       .  D
C917       C1130   1.436       .  S
N922        H954   1.037       .  S
N922       C1320   1.355   1_554  A
N922        C926   1.356       .  A
N923        C930   1.355   1_655  A
N923       C2503   1.353       .  A
N924        H955   1.038       .  S
N924       C1322   1.358   1_554  A
N924        C928   1.358       .  A
N925        C932   1.354   1_655  A
N925       C2505   1.353       .  A
C926        C934   1.388       .  A
C926        C942   1.418       .  A
C927       N1315   1.355       .  A
C927        C943   1.417       .  A
C927        C935   1.388       .  A
C928        C936   1.388       .  A
C928        C945   1.422       .  A
C929       N1317   1.358       .  A
C929        C944   1.421       .  A
C929        C937   1.388       .  A
C930        C942   1.416       .  A
C930        C938   1.386       .  A
C931       N2495   1.353       .  A
C931        C945   1.417       .  A
C931        C939   1.388       .  A
C932        C940   1.386       .  A
C932        C943   1.416       .  A
C933       N2497   1.353       .  A
C933        C941   1.387       .  A
C933        C944   1.416       .  A
C934       C1328   1.373   1_554  A
C934        H946   1.082       .  S
C935       C1327   1.373       .  A
C935        H947   1.082       .  S
C936       C1330   1.377   1_554  A
C936        H948   1.082       .  S
C937       C1329   1.377       .  A
C937        H949   1.083       .  S
C938       C2511   1.374   1_455  A
C938        H950   1.082       .  S
C939       C2510   1.374       .  A
C939        H951   1.082       .  S
C940       C2513   1.374   1_455  A
C940        H952   1.082       .  S
C941       C2512   1.374       .  A
C941        H953   1.082       .  S
C942       C1128   1.459       .  S
C943       C1146   1.458       .  S
C944       C1160   1.460       .  S
C945       C1134   1.460       .  S
C956        C957   1.540       .  S
C956        C962   1.536       .  S
C956        C960   1.540       .  S
C956       C1179   1.471       .  S
C957        H964   1.086       .  S
C957        C958   1.366       .  D
C958        C959   1.530       .  S
C958       C1124   1.440       .  S
C959        C963   1.531       .  S
C959        C961   1.533       .  S
C959        H965   1.112       .  S
C960        H966   1.086       .  S
C960        C961   1.364       .  D
C961       C1122   1.443       .  S
C962        H967   1.086       .  S
C962        C963   1.363       .  D
C963       C1127   1.438       .  S
N968       H1000   1.037       .  S
N968        C973   1.353       .  A
N968       C2544   1.353   1_455  A
N969        C977   1.352       .  A
N970       H1001   1.037       .  S
N970        C975   1.352       .  A
N970       C2546   1.354   1_455  A
N971        C979   1.351       .  A
C972       N2540   1.353       .  A
C972        C980   1.387       .  A
C972        C988   1.414       .  A
C973        C989   1.414       .  A
C973        C981   1.387       .  A
C974       N2542   1.354       .  A
C974        C982   1.387       .  A
C974        C991   1.414       .  A
C975        C990   1.413       .  A
C975        C983   1.387       .  A
C976        C988   1.414       .  A
C976        C984   1.387       .  A
C977        C991   1.413       .  A
C977        C985   1.387       .  A
C978        C986   1.387       .  A
C978        C989   1.413       .  A
C979        C987   1.387       .  A
C979        C990   1.412       .  A
C980       C2553   1.376       .  A
C980        H992   1.082       .  S
C981       C2552   1.376   1_455  A
C981        H993   1.082       .  S
C982       C2555   1.375       .  A
C982        H994   1.082       .  S
C983       C2554   1.375   1_455  A
C983        H995   1.082       .  S
C984        H996   1.082       .  S
C985        H997   1.082       .  S
C986        H998   1.082       .  S
C987        H999   1.082       .  S
C988       C1138   1.451       .  S
C989       C1132   1.450       .  S
C990       C1126   1.448       .  S
C991       C1120   1.452       .  S
N1002      H1034   1.038       .  S
N1002      C1007   1.351       .  A
N1002      C1399   1.351   1_554  A
N1003      C1011   1.350       .  A
N1004      H1035   1.038       .  S
N1004      C1009   1.353       .  A
N1004      C1401   1.352   1_554  A
N1005      C1013   1.350       .  A
C1006      N1395   1.351       .  A
C1006      C1014   1.387       .  A
C1006      C1022   1.409       .  A
C1007      C1023   1.409       .  A
C1007      C1015   1.388       .  A
C1008      N1397   1.352       .  A
C1008      C1016   1.387       .  A
C1008      C1025   1.413       .  A
C1009      C1024   1.413       .  A
C1009      C1017   1.387       .  A
C1010      C1022   1.411       .  A
C1010      C1018   1.386       .  A
C1011      C1025   1.412       .  A
C1011      C1019   1.388       .  A
C1012      C1020   1.387       .  A
C1012      C1023   1.410       .  A
C1013      C1021   1.388       .  A
C1013      C1024   1.411       .  A
C1014      C1408   1.374       .  A
C1014      H1026   1.082       .  S
C1015      C1407   1.374   1_554  A
C1015      H1027   1.082       .  S
C1016      C1410   1.378       .  A
C1016      H1028   1.082       .  S
C1017      C1409   1.378   1_554  A
C1017      H1029   1.082       .  S
C1018      H1030   1.082       .  S
C1019      H1031   1.082       .  S
C1020      H1032   1.082       .  S
C1021      H1033   1.082       .  S
C1022      C1150   1.446       .  S
C1023      C1131   1.445       .  S
C1024      C1125   1.449       .  S
C1025      C1142   1.449       .  S
N1036      H1068   1.038       .  S
N1036      C1041   1.354       .  A
N1036      C2612   1.356   1_455  A
N1037      C1044   1.350       .  A
N1037      C1438   1.350   1_554  A
N1038      H1069   1.038       .  S
N1038      C1043   1.355       .  A
N1038      C2614   1.356   1_455  A
N1039      C1046   1.353       .  A
N1039      C1440   1.353   1_554  A
C1040      N2608   1.356       .  A
C1040      C1048   1.387       .  A
C1040      C1056   1.416       .  A
C1041      C1057   1.416       .  A
C1041      C1049   1.389       .  A
C1042      N2610   1.356       .  A
C1042      C1050   1.387       .  A
C1042      C1059   1.416       .  A
C1043      C1058   1.417       .  A
C1043      C1051   1.389       .  A
C1044      C1056   1.409       .  A
C1044      C1052   1.387       .  A
C1045      N1430   1.350       .  A
C1045      C1059   1.409       .  A
C1045      C1053   1.387       .  A
C1046      C1054   1.387       .  A
C1046      C1057   1.415       .  A
C1047      N1432   1.353       .  A
C1047      C1055   1.387       .  A
C1047      C1058   1.415       .  A
C1048      C2621   1.374       .  A
C1048      H1060   1.082       .  S
C1049      C2620   1.374   1_455  A
C1049      H1061   1.082       .  S
C1050      C2623   1.374       .  A
C1050      H1062   1.082       .  S
C1051      C2622   1.374   1_455  A
C1051      H1063   1.082       .  S
C1052      C1446   1.371   1_554  A
C1052      H1064   1.082       .  S
C1053      C1445   1.371       .  A
C1053      H1065   1.083       .  S
C1054      C1448   1.373   1_554  A
C1054      H1066   1.082       .  S
C1055      C1447   1.373       .  A
C1055      H1067   1.082       .  S
C1056      C1119   1.452       .  S
C1057      C1123   1.453       .  S
C1058      C1145   1.454       .  S
C1059      C1157   1.451       .  S
C1070      C1071   1.543       .  S
C1070      C1076   1.534       .  S
C1070      C1074   1.534       .  S
C1070      C1177   1.468       .  S
C1071      H1078   1.086       .  S
C1071      C1072   1.367       .  D
C1072      C1073   1.531       .  S
C1072      C1121   1.442       .  S
C1073      C1077   1.535       .  S
C1073      C1075   1.537       .  S
C1073      H1079   1.112       .  S
C1074      H1080   1.087       .  S
C1074      C1075   1.362       .  D
C1075      C1118   1.443       .  S
C1076      H1081   1.087       .  S
C1076      C1077   1.363       .  D
C1077      C1116   1.439       .  S
N1082      H1114   1.038       .  S
N1082      C1087   1.351       .  A
N1082      C1479   1.351   1_554  A
N1083      C1091   1.351       .  A
N1084      H1115   1.036       .  S
N1084      C1089   1.355       .  A
N1084      C1481   1.355   1_554  A
N1085      C1093   1.351       .  A
C1086      N1475   1.351       .  A
C1086      C1094   1.387       .  A
C1086      C1102   1.408       .  A
C1087      C1103   1.409       .  A
C1087      C1095   1.388       .  A
C1088      N1477   1.355       .  A
C1088      C1096   1.387       .  A
C1088      C1105   1.418       .  A
C1089      C1104   1.419       .  A
C1089      C1097   1.387       .  A
C1090      C1102   1.412       .  A
C1090      C1098   1.386       .  A
C1091      C1105   1.415       .  A
C1091      C1099   1.389       .  A
C1092      C1100   1.386       .  A
C1092      C1103   1.412       .  A
C1093      C1101   1.389       .  A
C1093      C1104   1.415       .  A
C1094      C1488   1.375       .  A
C1094      H1106   1.082       .  S
C1095      C1487   1.375   1_554  A
C1095      H1107   1.082       .  S
C1096      C1490   1.379       .  A
C1096      H1108   1.082       .  S
C1097      C1489   1.379   1_554  A
C1097      H1109   1.082       .  S
C1098      H1110   1.083       .  S
C1099      H1111   1.082       .  S
C1100      H1112   1.083       .  S
C1101      H1113   1.082       .  S
C1102      C1153   1.448       .  S
C1103      C1117   1.448       .  S
C1104      C1137   1.454       .  S
C1105      C1159   1.454       .  S
C1116      C1117   1.205       .  T
C1118      C1119   1.207       .  T
C1120      C1121   1.207       .  T
C1122      C1123   1.207       .  T
C1124      C1125   1.206       .  T
C1126      C1127   1.204       .  T
C1128      C1129   1.211       .  T
C1130      C1131   1.203       .  T
C1132      C1133   1.206       .  T
C1134      C1135   1.212       .  T
C1136      C1137   1.208       .  T
C1138      C1139   1.206       .  T
C1140      C1141   1.204       .  T
C1142      C1143   1.205       .  T
C1144      C1145   1.208       .  T
C1146      C1147   1.210       .  T
C1148      C1149   1.205       .  T
C1150      C1151   1.204       .  T
C1152      C1153   1.205       .  T
C1154      C1155   1.207       .  T
C1156      C1157   1.206       .  T
C1158      C1159   1.208       .  T
C1160      C1161   1.212       .  T
C1162      C1163   1.207       .  T
C1164      C1165   1.214       .  T
C1166      C1167   1.206       .  T
C1168      C1169   1.209       .  T
C1170      C1171   1.214       .  T
C1172      C1173   1.207       .  T
C1174      C1175   1.209       .  T
C1176      C1177   1.206       .  T
C1178      C1179   1.208       .  T
O1180      C1188   1.272       .  A
O1180     Co1200   1.903       .  S
O1181      C1189   1.261       .  A
O1181     Co1201   1.990       .  S
O1182      C1190   1.296       .  A
O1182     Co1202   2.070       .  S
O1183      C1191   1.266       .  A
O1183     Co1203   2.018       .  S
O1184      C1190   1.272       .  A
O1184     Co1201   1.903       .  S
O1185      C1191   1.261       .  A
O1185     Co1200   1.990       .  S
O1186      C1189   1.266       .  A
O1186     Co1203   2.019       .  S
O1187      C1188   1.297       .  A
O1187     Co1202   2.071       .  S
C1188      C1567   1.440       .  S
C1189      C1557   1.448       .  S
C1190      C1562   1.439       .  S
C1191      C1563   1.448       .  S
O1192      C1205   1.270       .  A
O1192     Co1200   2.015       .  S
O1193      C1206   1.243       .  A
O1193     Co1201   1.965       .  S
O1194      C1207   1.252       .  A
O1194     Co1202   2.002       .  S
O1195      C1208   1.260       .  A
O1195     Co1203   1.972       .  S
O1196      C1208   1.270       .  A
O1196     Co1201   2.016       .  S
O1197      C1207   1.243       .  A
O1197     Co1200   1.967       .  S
O1198      C1205   1.260       .  A
O1198     Co1203   1.972       .  S
O1199      C1206   1.252       .  A
O1199     Co1202   2.001       .  S
Co1200     O1204   1.938       .  S
Co1201     O1204   1.940       .  S
Co1202     O1204   2.259       .  S
Co1203     O1204   2.085       .  S
C1205      C1569   1.434       .  S
C1206      C1565   1.435       .  S
C1207      C1571   1.437       .  S
C1208      C1560   1.434       .  S
C1209      C1210   1.537       .  S
C1209      C1215   1.542       .  S
C1209      C1213   1.546       .  S
C1209      C1558   1.483       .  S
C1210      H1217   1.086       .  S
C1210      C1211   1.364       .  D
C1211      C1212   1.533       .  S
C1211      C1556   1.442       .  S
C1212      C1216   1.532       .  S
C1212      C1214   1.533       .  S
C1212      H1218   1.112       .  S
C1213      H1219   1.086       .  S
C1213      C1214   1.369       .  D
C1214      C1554   1.451       .  S
C1215      H1220   1.086       .  S
C1215      C1216   1.367       .  D
C1216      C1551   1.445       .  S
C1221      C1222   1.534       .  S
C1221      C1227   1.542       .  S
C1221      C1225   1.533       .  S
C1221      C1559   1.468       .  S
C1222      H1229   1.087       .  S
C1222      C1223   1.363       .  D
C1223      C1224   1.536       .  S
C1223      C1545   1.440       .  S
C1224      C1228   1.532       .  S
C1224      C1226   1.537       .  S
C1224      H1230   1.112       .  S
C1225      H1231   1.087       .  S
C1225      C1226   1.361       .  D
C1226      C1549   1.442       .  S
C1227      H1232   1.086       .  S
C1227      C1228   1.367       .  D
C1228      C1548   1.442       .  S
C1233      C1234   1.534       .  S
C1233      C1239   1.541       .  S
C1233      C1237   1.541       .  S
C1233      C1561   1.473       .  S
C1234      H1241   1.087       .  S
C1234      C1235   1.361       .  D
C1235      C1236   1.532       .  S
C1235      C1544   1.437       .  S
C1236      C1240   1.530       .  S
C1236      C1238   1.535       .  S
C1236      H1242   1.112       .  S
C1237      H1243   1.086       .  S
C1237      C1238   1.367       .  D
C1238      C1540   1.448       .  S
C1239      H1244   1.086       .  S
C1239      C1240   1.366       .  D
C1240      C1542   1.439       .  S
C1245      C1246   1.536       .  S
C1245      C1251   1.539       .  S
C1245      C1249   1.539       .  S
C1245      C1566   1.469       .  S
C1246      H1253   1.087       .  S
C1246      C1247   1.363       .  D
C1247      C1248   1.532       .  S
C1247      C1534   1.438       .  S
C1248      C1252   1.531       .  S
C1248      C1250   1.533       .  S
C1248      H1254   1.112       .  S
C1249      H1255   1.086       .  S
C1249      C1250   1.364       .  D
C1250      C1537   1.444       .  S
C1251      H1256   1.086       .  S
C1251      C1252   1.365       .  D
C1252      C1536   1.440       .  S
N1257      H1289   1.037       .  S
N1257      C2834   1.353   1_455  A
N1257      C1261   1.353       .  A
N1258      C1266   1.351       .  A
N1259      H1290   1.037       .  S
N1259      C2836   1.353   1_455  A
N1259      C1263   1.352       .  A
N1260      C1268   1.352       .  A
C1261      C1269   1.388       .  A
C1261      C1277   1.414       .  A
C1262      N2829   1.353       .  A
C1262      C1278   1.414       .  A
C1262      C1270   1.387       .  A
C1263      C1271   1.388       .  A
C1263      C1280   1.414       .  A
C1264      N2831   1.353       .  A
C1264      C1279   1.414       .  A
C1264      C1272   1.388       .  A
C1265      C1277   1.413       .  A
C1265      C1273   1.387       .  A
C1266      C1280   1.413       .  A
C1266      C1274   1.388       .  A
C1267      C1275   1.387       .  A
C1267      C1278   1.414       .  A
C1268      C1276   1.387       .  A
C1268      C1279   1.414       .  A
C1269      C2842   1.375   1_455  A
C1269      H1281   1.082       .  S
C1270      C2841   1.375       .  A
C1270      H1282   1.082       .  S
C1271      C2844   1.375   1_455  A
C1271      H1283   1.082       .  S
C1272      C2843   1.375       .  A
C1272      H1284   1.082       .  S
C1273      H1285   1.083       .  S
C1274      H1286   1.083       .  S
C1275      H1287   1.083       .  S
C1276      H1288   1.082       .  S
C1277      C1541   1.450       .  S
C1278      C1555   1.451       .  S
C1279      C1547   1.452       .  S
C1280      C1533   1.448       .  S
C1291      C1292   1.542       .  S
C1291      C1297   1.537       .  S
C1291      C1295   1.546       .  S
C1291      C1564   1.483       .  S
C1292      H1299   1.086       .  S
C1292      C1293   1.367       .  D
C1293      C1294   1.531       .  S
C1293      C1529   1.444       .  S
C1294      C1298   1.533       .  S
C1294      C1296   1.532       .  S
C1294      H1300   1.112       .  S
C1295      H1301   1.086       .  S
C1295      C1296   1.369       .  D
C1296      C1528   1.450       .  S
C1297      H1302   1.086       .  S
C1297      C1298   1.364       .  D
C1298      C1532   1.442       .  S
C1303      C1304   1.541       .  S
C1303      C1309   1.534       .  S
C1303      C1307   1.542       .  S
C1303      C1568   1.473       .  S
C1304      H1311   1.086       .  S
C1304      C1305   1.366       .  D
C1305      C1306   1.530       .  S
C1305      C1526   1.440       .  S
C1306      C1310   1.532       .  S
C1306      C1308   1.535       .  S
C1306      H1312   1.112       .  S
C1307      H1313   1.086       .  S
C1307      C1308   1.367       .  D
C1308      C1522   1.450       .  S
C1309      H1314   1.087       .  S
C1309      C1310   1.361       .  D
C1310      C1523   1.436       .  S
N1315      H1347   1.037       .  S
N1315      C1319   1.356       .  A
N1316      C1323   1.355   1_655  A
N1316      C2896   1.353       .  A
N1317      H1348   1.038       .  S
N1317      C1321   1.358       .  A
N1318      C1325   1.354   1_655  A
N1318      C2898   1.353       .  A
C1319      C1327   1.388       .  A
C1319      C1335   1.418       .  A
C1320      C1336   1.417       .  A
C1320      C1328   1.388       .  A
C1321      C1329   1.388       .  A
C1321      C1338   1.422       .  A
C1322      C1337   1.421       .  A
C1322      C1330   1.388       .  A
C1323      C1335   1.416       .  A
C1323      C1331   1.386       .  A
C1324      N2888   1.353       .  A
C1324      C1338   1.417       .  A
C1324      C1332   1.388       .  A
C1325      C1333   1.386       .  A
C1325      C1336   1.416       .  A
C1326      N2890   1.353       .  A
C1326      C1334   1.387       .  A
C1326      C1337   1.416       .  A
C1327      H1339   1.082       .  S
C1328      H1340   1.082       .  S
C1329      H1341   1.082       .  S
C1330      H1342   1.083       .  S
C1331      C2904   1.374   1_455  A
C1331      H1343   1.082       .  S
C1332      C2903   1.374       .  A
C1332      H1344   1.082       .  S
C1333      C2906   1.374   1_455  A
C1333      H1345   1.082       .  S
C1334      C2905   1.374       .  A
C1334      H1346   1.082       .  S
C1335      C1521   1.459       .  S
C1336      C1539   1.458       .  S
C1337      C1553   1.460       .  S
C1338      C1527   1.460       .  S
C1349      C1350   1.540       .  S
C1349      C1355   1.536       .  S
C1349      C1353   1.540       .  S
C1349      C1572   1.471       .  S
C1350      H1357   1.086       .  S
C1350      C1351   1.366       .  D
C1351      C1352   1.530       .  S
C1351      C1517   1.440       .  S
C1352      C1356   1.531       .  S
C1352      C1354   1.533       .  S
C1352      H1358   1.112       .  S
C1353      H1359   1.086       .  S
C1353      C1354   1.364       .  D
C1354      C1515   1.443       .  S
C1355      H1360   1.086       .  S
C1355      C1356   1.363       .  D
C1356      C1520   1.438       .  S
N1361      H1393   1.037       .  S
N1361      C1366   1.353       .  A
N1361      C2937   1.353   1_455  A
N1362      C1370   1.352       .  A
N1363      H1394   1.037       .  S
N1363      C1368   1.352       .  A
N1363      C2939   1.354   1_455  A
N1364      C1372   1.351       .  A
C1365      N2933   1.353       .  A
C1365      C1373   1.387       .  A
C1365      C1381   1.414       .  A
C1366      C1382   1.414       .  A
C1366      C1374   1.387       .  A
C1367      N2935   1.354       .  A
C1367      C1375   1.387       .  A
C1367      C1384   1.414       .  A
C1368      C1383   1.413       .  A
C1368      C1376   1.387       .  A
C1369      C1381   1.414       .  A
C1369      C1377   1.387       .  A
C1370      C1384   1.413       .  A
C1370      C1378   1.387       .  A
C1371      C1379   1.387       .  A
C1371      C1382   1.413       .  A
C1372      C1380   1.387       .  A
C1372      C1383   1.412       .  A
C1373      C2946   1.376       .  A
C1373      H1385   1.082       .  S
C1374      C2945   1.376   1_455  A
C1374      H1386   1.082       .  S
C1375      C2948   1.375       .  A
C1375      H1387   1.082       .  S
C1376      C2947   1.375   1_455  A
C1376      H1388   1.082       .  S
C1377      H1389   1.082       .  S
C1378      H1390   1.082       .  S
C1379      H1391   1.082       .  S
C1380      H1392   1.082       .  S
C1381      C1531   1.451       .  S
C1382      C1525   1.450       .  S
C1383      C1519   1.448       .  S
C1384      C1513   1.452       .  S
N1395      H1427   1.038       .  S
N1395      C1400   1.351       .  A
N1396      C1404   1.350       .  A
N1397      H1428   1.038       .  S
N1397      C1402   1.353       .  A
N1398      C1406   1.350       .  A
C1399      C1407   1.387       .  A
C1399      C1415   1.409       .  A
C1400      C1416   1.409       .  A
C1400      C1408   1.388       .  A
C1401      C1409   1.387       .  A
C1401      C1418   1.413       .  A
C1402      C1417   1.413       .  A
C1402      C1410   1.387       .  A
C1403      C1415   1.411       .  A
C1403      C1411   1.386       .  A
C1404      C1418   1.412       .  A
C1404      C1412   1.388       .  A
C1405      C1413   1.387       .  A
C1405      C1416   1.410       .  A
C1406      C1414   1.388       .  A
C1406      C1417   1.411       .  A
C1407      H1419   1.082       .  S
C1408      H1420   1.082       .  S
C1409      H1421   1.082       .  S
C1410      H1422   1.082       .  S
C1411      H1423   1.082       .  S
C1412      H1424   1.082       .  S
C1413      H1425   1.082       .  S
C1414      H1426   1.082       .  S
C1415      C1543   1.446       .  S
C1416      C1524   1.445       .  S
C1417      C1518   1.449       .  S
C1418      C1535   1.449       .  S
N1429      H1461   1.038       .  S
N1429      C1434   1.354       .  A
N1429      C3005   1.356   1_455  A
N1430      C1437   1.350       .  A
N1431      H1462   1.038       .  S
N1431      C1436   1.355       .  A
N1431      C3007   1.356   1_455  A
N1432      C1439   1.353       .  A
C1433      N3001   1.356       .  A
C1433      C1441   1.387       .  A
C1433      C1449   1.416       .  A
C1434      C1450   1.416       .  A
C1434      C1442   1.389       .  A
C1435      N3003   1.356       .  A
C1435      C1443   1.387       .  A
C1435      C1452   1.416       .  A
C1436      C1451   1.417       .  A
C1436      C1444   1.389       .  A
C1437      C1449   1.409       .  A
C1437      C1445   1.387       .  A
C1438      C1452   1.409       .  A
C1438      C1446   1.387       .  A
C1439      C1447   1.387       .  A
C1439      C1450   1.415       .  A
C1440      C1448   1.387       .  A
C1440      C1451   1.415       .  A
C1441      C3014   1.374       .  A
C1441      H1453   1.082       .  S
C1442      C3013   1.374   1_455  A
C1442      H1454   1.082       .  S
C1443      C3016   1.374       .  A
C1443      H1455   1.082       .  S
C1444      C3015   1.374   1_455  A
C1444      H1456   1.082       .  S
C1445      H1457   1.082       .  S
C1446      H1458   1.083       .  S
C1447      H1459   1.082       .  S
C1448      H1460   1.082       .  S
C1449      C1512   1.452       .  S
C1450      C1516   1.453       .  S
C1451      C1538   1.454       .  S
C1452      C1550   1.451       .  S
C1463      C1464   1.543       .  S
C1463      C1469   1.534       .  S
C1463      C1467   1.534       .  S
C1463      C1570   1.468       .  S
C1464      H1471   1.086       .  S
C1464      C1465   1.367       .  D
C1465      C1466   1.531       .  S
C1465      C1514   1.442       .  S
C1466      C1470   1.535       .  S
C1466      C1468   1.537       .  S
C1466      H1472   1.112       .  S
C1467      H1473   1.087       .  S
C1467      C1468   1.362       .  D
C1468      C1511   1.443       .  S
C1469      H1474   1.087       .  S
C1469      C1470   1.363       .  D
C1470      C1509   1.439       .  S
N1475      H1507   1.038       .  S
N1475      C1480   1.350       .  A
N1476      C1484   1.351       .  A
N1477      H1508   1.036       .  S
N1477      C1482   1.355       .  A
N1478      C1486   1.351       .  A
C1479      C1487   1.387       .  A
C1479      C1495   1.408       .  A
C1480      C1496   1.409       .  A
C1480      C1488   1.388       .  A
C1481      C1489   1.387       .  A
C1481      C1498   1.418       .  A
C1482      C1497   1.419       .  A
C1482      C1490   1.387       .  A
C1483      C1495   1.412       .  A
C1483      C1491   1.386       .  A
C1484      C1498   1.415       .  A
C1484      C1492   1.389       .  A
C1485      C1493   1.386       .  A
C1485      C1496   1.411       .  A
C1486      C1494   1.389       .  A
C1486      C1497   1.415       .  A
C1487      H1499   1.082       .  S
C1488      H1500   1.082       .  S
C1489      H1501   1.082       .  S
C1490      H1502   1.082       .  S
C1491      H1503   1.083       .  S
C1492      H1504   1.082       .  S
C1493      H1505   1.083       .  S
C1494      H1506   1.082       .  S
C1495      C1546   1.449       .  S
C1496      C1510   1.447       .  S
C1497      C1530   1.454       .  S
C1498      C1552   1.454       .  S
C1509      C1510   1.205       .  T
C1511      C1512   1.207       .  T
C1513      C1514   1.207       .  T
C1515      C1516   1.207       .  T
C1517      C1518   1.206       .  T
C1519      C1520   1.204       .  T
C1521      C1522   1.211       .  T
C1523      C1524   1.203       .  T
C1525      C1526   1.206       .  T
C1527      C1528   1.212       .  T
C1529      C1530   1.208       .  T
C1531      C1532   1.206       .  T
C1533      C1534   1.204       .  T
C1535      C1536   1.205       .  T
C1537      C1538   1.208       .  T
C1539      C1540   1.210       .  T
C1541      C1542   1.205       .  T
C1543      C1544   1.204       .  T
C1545      C1546   1.205       .  T
C1547      C1548   1.207       .  T
C1549      C1550   1.206       .  T
C1551      C1552   1.208       .  T
C1553      C1554   1.212       .  T
C1555      C1556   1.207       .  T
C1557      C1558   1.214       .  T
C1559      C1560   1.206       .  T
C1561      C1562   1.209       .  T
C1563      C1564   1.214       .  T
C1565      C1566   1.207       .  T
C1567      C1568   1.209       .  T
C1569      C1570   1.206       .  T
C1571      C1572   1.208       .  T
O1573      C1581   1.272       .  A
O1573     Co1593   1.903       .  S
O1574      C1582   1.261       .  A
O1574     Co1594   1.990       .  S
O1575      C1583   1.296       .  A
O1575     Co1595   2.070       .  S
O1576      C1584   1.266       .  A
O1576     Co1596   2.018       .  S
O1577      C1583   1.272       .  A
O1577     Co1594   1.903       .  S
O1578      C1584   1.261       .  A
O1578     Co1593   1.990       .  S
O1579      C1582   1.266       .  A
O1579     Co1596   2.019       .  S
O1580      C1581   1.297       .  A
O1580     Co1595   2.071       .  S
C1581      C1960   1.440       .  S
C1582      C1950   1.448       .  S
C1583      C1955   1.439       .  S
C1584      C1956   1.448       .  S
O1585      C1598   1.270       .  A
O1585     Co1593   2.015       .  S
O1586      C1599   1.243       .  A
O1586     Co1594   1.964       .  S
O1587      C1600   1.252       .  A
O1587     Co1595   2.002       .  S
O1588      C1601   1.260       .  A
O1588     Co1596   1.972       .  S
O1589      C1601   1.270       .  A
O1589     Co1594   2.016       .  S
O1590      C1600   1.243       .  A
O1590     Co1593   1.967       .  S
O1591      C1598   1.260       .  A
O1591     Co1596   1.972       .  S
O1592      C1599   1.252       .  A
O1592     Co1595   2.001       .  S
Co1593     O1597   1.938       .  S
Co1594     O1597   1.940       .  S
Co1595     O1597   2.259       .  S
Co1596     O1597   2.085       .  S
C1598      C1962   1.434       .  S
C1599      C1958   1.435       .  S
C1600      C1964   1.437       .  S
C1601      C1953   1.434       .  S
C1602      C1603   1.537       .  S
C1602      C1608   1.542       .  S
C1602      C1606   1.546       .  S
C1602      C1951   1.483       .  S
C1603      H1610   1.086       .  S
C1603      C1604   1.364       .  D
C1604      C1605   1.533       .  S
C1604      C1949   1.442       .  S
C1605      C1609   1.532       .  S
C1605      C1607   1.533       .  S
C1605      H1611   1.112       .  S
C1606      H1612   1.086       .  S
C1606      C1607   1.369       .  D
C1607      C1947   1.450       .  S
C1608      H1613   1.086       .  S
C1608      C1609   1.367       .  D
C1609      C1944   1.445       .  S
C1614      C1615   1.534       .  S
C1614      C1620   1.542       .  S
C1614      C1618   1.533       .  S
C1614      C1952   1.468       .  S
C1615      H1622   1.087       .  S
C1615      C1616   1.363       .  D
C1616      C1617   1.536       .  S
C1616      C1938   1.440       .  S
C1617      C1621   1.532       .  S
C1617      C1619   1.537       .  S
C1617      H1623   1.112       .  S
C1618      H1624   1.087       .  S
C1618      C1619   1.361       .  D
C1619      C1942   1.442       .  S
C1620      H1625   1.086       .  S
C1620      C1621   1.367       .  D
C1621      C1941   1.442       .  S
C1626      C1627   1.534       .  S
C1626      C1632   1.541       .  S
C1626      C1630   1.541       .  S
C1626      C1954   1.473       .  S
C1627      H1634   1.087       .  S
C1627      C1628   1.361       .  D
C1628      C1629   1.532       .  S
C1628      C1937   1.437       .  S
C1629      C1633   1.530       .  S
C1629      C1631   1.535       .  S
C1629      H1635   1.112       .  S
C1630      H1636   1.086       .  S
C1630      C1631   1.367       .  D
C1631      C1933   1.448       .  S
C1632      H1637   1.086       .  S
C1632      C1633   1.366       .  D
C1633      C1935   1.439       .  S
C1638      C1639   1.536       .  S
C1638      C1644   1.539       .  S
C1638      C1642   1.539       .  S
C1638      C1959   1.469       .  S
C1639      H1646   1.087       .  S
C1639      C1640   1.363       .  D
C1640      C1641   1.532       .  S
C1640      C1927   1.438       .  S
C1641      C1645   1.532       .  S
C1641      C1643   1.533       .  S
C1641      H1647   1.112       .  S
C1642      H1648   1.086       .  S
C1642      C1643   1.364       .  D
C1643      C1930   1.444       .  S
C1644      H1649   1.086       .  S
C1644      C1645   1.365       .  D
C1645      C1929   1.440       .  S
N1650      H1682   1.037       .  S
N1650      C1654   1.353       .  A
N1651      C2444   1.352   1_545  A
N1651      C1659   1.351       .  A
N1652      H1683   1.037       .  S
N1652      C1656   1.352       .  A
N1653      C2446   1.352   1_545  A
N1653      C1661   1.352       .  A
C1654      C1662   1.388       .  A
C1654      C1670   1.414       .  A
C1655      C1671   1.414       .  A
C1655      C1663   1.387       .  A
C1656      C1664   1.388       .  A
C1656      C1673   1.414       .  A
C1657      C1672   1.414       .  A
C1657      C1665   1.388       .  A
C1658      N2437   1.352       .  A
C1658      C1670   1.413       .  A
C1658      C1666   1.387       .  A
C1659      C1673   1.413       .  A
C1659      C1667   1.388       .  A
C1660      N2439   1.352       .  A
C1660      C1668   1.387       .  A
C1660      C1671   1.414       .  A
C1661      C1669   1.387       .  A
C1661      C1672   1.414       .  A
C1662      H1674   1.082       .  S
C1663      H1675   1.082       .  S
C1664      H1676   1.082       .  S
C1665      H1677   1.082       .  S
C1666      C2453   1.374       .  A
C1666      H1678   1.083       .  S
C1667      C2452   1.374   1_545  A
C1667      H1679   1.083       .  S
C1668      C2455   1.374       .  A
C1668      H1680   1.083       .  S
C1669      C2454   1.374   1_545  A
C1669      H1681   1.082       .  S
C1670      C1934   1.450       .  S
C1671      C1948   1.451       .  S
C1672      C1940   1.452       .  S
C1673      C1926   1.448       .  S
C1684      C1685   1.542       .  S
C1684      C1690   1.537       .  S
C1684      C1688   1.546       .  S
C1684      C1957   1.483       .  S
C1685      H1692   1.086       .  S
C1685      C1686   1.367       .  D
C1686      C1687   1.531       .  S
C1686      C1922   1.445       .  S
C1687      C1691   1.533       .  S
C1687      C1689   1.532       .  S
C1687      H1693   1.112       .  S
C1688      H1694   1.086       .  S
C1688      C1689   1.369       .  D
C1689      C1921   1.450       .  S
C1690      H1695   1.086       .  S
C1690      C1691   1.364       .  D
C1691      C1925   1.442       .  S
C1696      C1697   1.541       .  S
C1696      C1702   1.534       .  S
C1696      C1700   1.542       .  S
C1696      C1961   1.473       .  S
C1697      H1704   1.086       .  S
C1697      C1698   1.366       .  D
C1698      C1699   1.530       .  S
C1698      C1919   1.440       .  S
C1699      C1703   1.532       .  S
C1699      C1701   1.535       .  S
C1699      H1705   1.112       .  S
C1700      H1706   1.086       .  S
C1700      C1701   1.367       .  D
C1701      C1915   1.450       .  S
C1702      H1707   1.087       .  S
C1702      C1703   1.361       .  D
C1703      C1916   1.436       .  S
N1708      H1740   1.037       .  S
N1708      C2106   1.355   1_554  A
N1708      C1712   1.356       .  A
N1709      C1716   1.355       .  A
N1710      H1741   1.038       .  S
N1710      C2108   1.358   1_554  A
N1710      C1714   1.358       .  A
N1711      C1718   1.354       .  A
C1712      C1720   1.388       .  A
C1712      C1728   1.418       .  A
C1713      N2101   1.355       .  A
C1713      C1729   1.417       .  A
C1713      C1721   1.388       .  A
C1714      C1722   1.388       .  A
C1714      C1731   1.422       .  A
C1715      N2103   1.358       .  A
C1715      C1730   1.421       .  A
C1715      C1723   1.388       .  A
C1716      C1728   1.416       .  A
C1716      C1724   1.386       .  A
C1717      C1731   1.417       .  A
C1717      C1725   1.388       .  A
C1718      C1726   1.386       .  A
C1718      C1729   1.416       .  A
C1719      C1727   1.387       .  A
C1719      C1730   1.416       .  A
C1720      C2114   1.373   1_554  A
C1720      H1732   1.082       .  S
C1721      C2113   1.373       .  A
C1721      H1733   1.082       .  S
C1722      C2116   1.377   1_554  A
C1722      H1734   1.082       .  S
C1723      C2115   1.377       .  A
C1723      H1735   1.083       .  S
C1724      H1736   1.082       .  S
C1725      H1737   1.082       .  S
C1726      H1738   1.082       .  S
C1727      H1739   1.082       .  S
C1728      C1914   1.459       .  S
C1729      C1932   1.458       .  S
C1730      C1946   1.460       .  S
C1731      C1920   1.460       .  S
C1742      C1743   1.540       .  S
C1742      C1748   1.536       .  S
C1742      C1746   1.540       .  S
C1742      C1965   1.471       .  S
C1743      H1750   1.086       .  S
C1743      C1744   1.366       .  D
C1744      C1745   1.530       .  S
C1744      C1910   1.440       .  S
C1745      C1749   1.531       .  S
C1745      C1747   1.533       .  S
C1745      H1751   1.112       .  S
C1746      H1752   1.086       .  S
C1746      C1747   1.364       .  D
C1747      C1908   1.443       .  S
C1748      H1753   1.086       .  S
C1748      C1749   1.363       .  D
C1749      C1913   1.438       .  S
N1754      H1786   1.037       .  S
N1754      C1759   1.353       .  A
N1755      C2548   1.352   1_545  A
N1755      C1763   1.352       .  A
N1756      H1787   1.037       .  S
N1756      C1761   1.352       .  A
N1757      C2550   1.351   1_545  A
N1757      C1765   1.351       .  A
C1758      C1766   1.387       .  A
C1758      C1774   1.414       .  A
C1759      C1775   1.414       .  A
C1759      C1767   1.387       .  A
C1760      C1768   1.387       .  A
C1760      C1777   1.414       .  A
C1761      C1776   1.413       .  A
C1761      C1769   1.387       .  A
C1762      N2541   1.352       .  A
C1762      C1774   1.414       .  A
C1762      C1770   1.387       .  A
C1763      C1777   1.413       .  A
C1763      C1771   1.387       .  A
C1764      N2543   1.351       .  A
C1764      C1772   1.387       .  A
C1764      C1775   1.413       .  A
C1765      C1773   1.387       .  A
C1765      C1776   1.412       .  A
C1766      H1778   1.082       .  S
C1767      H1779   1.082       .  S
C1768      H1780   1.082       .  S
C1769      H1781   1.082       .  S
C1770      C2557   1.374       .  A
C1770      H1782   1.082       .  S
C1771      C2556   1.374   1_545  A
C1771      H1783   1.082       .  S
C1772      C2559   1.374       .  A
C1772      H1784   1.082       .  S
C1773      C2558   1.374   1_545  A
C1773      H1785   1.082       .  S
C1774      C1924   1.451       .  S
C1775      C1918   1.450       .  S
C1776      C1912   1.448       .  S
C1777      C1906   1.452       .  S
N1788      H1820   1.038       .  S
N1788      C1793   1.351       .  A
N1788      C2185   1.351   1_554  A
N1789      C2582   1.351   1_545  A
N1789      C1797   1.350       .  A
N1790      H1821   1.038       .  S
N1790      C1795   1.353       .  A
N1790      C2187   1.352   1_554  A
N1791      C2584   1.350   1_545  A
N1791      C1799   1.350       .  A
C1792      N2181   1.351       .  A
C1792      C1800   1.387       .  A
C1792      C1808   1.409       .  A
C1793      C1809   1.410       .  A
C1793      C1801   1.388       .  A
C1794      N2183   1.352       .  A
C1794      C1802   1.387       .  A
C1794      C1811   1.413       .  A
C1795      C1810   1.413       .  A
C1795      C1803   1.387       .  A
C1796      N2575   1.351       .  A
C1796      C1808   1.411       .  A
C1796      C1804   1.386       .  A
C1797      C1811   1.412       .  A
C1797      C1805   1.388       .  A
C1798      N2577   1.350       .  A
C1798      C1806   1.387       .  A
C1798      C1809   1.410       .  A
C1799      C1807   1.388       .  A
C1799      C1810   1.411       .  A
C1800      C2194   1.374       .  A
C1800      H1812   1.082       .  S
C1801      C2193   1.374   1_554  A
C1801      H1813   1.082       .  S
C1802      C2196   1.378       .  A
C1802      H1814   1.082       .  S
C1803      C2195   1.378   1_554  A
C1803      H1815   1.082       .  S
C1804      C2591   1.375       .  A
C1804      H1816   1.082       .  S
C1805      C2590   1.375   1_545  A
C1805      H1817   1.082       .  S
C1806      C2593   1.375       .  A
C1806      H1818   1.082       .  S
C1807      C2592   1.375   1_545  A
C1807      H1819   1.082       .  S
C1808      C1936   1.446       .  S
C1809      C1917   1.445       .  S
C1810      C1911   1.449       .  S
C1811      C1928   1.449       .  S
N1822      H1854   1.038       .  S
N1822      C1827   1.354       .  A
N1823      C1830   1.350       .  A
N1823      C2224   1.350   1_554  A
N1824      H1855   1.038       .  S
N1824      C1829   1.355       .  A
N1825      C1832   1.353       .  A
N1825      C2226   1.353   1_554  A
C1826      C1834   1.387       .  A
C1826      C1842   1.416       .  A
C1827      C1843   1.416       .  A
C1827      C1835   1.389       .  A
C1828      C1836   1.387       .  A
C1828      C1845   1.416       .  A
C1829      C1844   1.417       .  A
C1829      C1837   1.389       .  A
C1830      C1842   1.409       .  A
C1830      C1838   1.387       .  A
C1831      N2216   1.350       .  A
C1831      C1845   1.409       .  A
C1831      C1839   1.387       .  A
C1832      C1840   1.387       .  A
C1832      C1843   1.415       .  A
C1833      N2218   1.353       .  A
C1833      C1841   1.387       .  A
C1833      C1844   1.415       .  A
C1834      H1846   1.082       .  S
C1835      H1847   1.082       .  S
C1836      H1848   1.082       .  S
C1837      H1849   1.082       .  S
C1838      C2232   1.371   1_554  A
C1838      H1850   1.082       .  S
C1839      C2231   1.371       .  A
C1839      H1851   1.083       .  S
C1840      C2234   1.373   1_554  A
C1840      H1852   1.082       .  S
C1841      C2233   1.373       .  A
C1841      H1853   1.082       .  S
C1842      C1905   1.452       .  S
C1843      C1909   1.453       .  S
C1844      C1931   1.454       .  S
C1845      C1943   1.451       .  S
C1856      C1857   1.543       .  S
C1856      C1862   1.534       .  S
C1856      C1860   1.534       .  S
C1856      C1963   1.468       .  S
C1857      H1864   1.086       .  S
C1857      C1858   1.367       .  D
C1858      C1859   1.531       .  S
C1858      C1907   1.442       .  S
C1859      C1863   1.535       .  S
C1859      C1861   1.537       .  S
C1859      H1865   1.112       .  S
C1860      H1866   1.087       .  S
C1860      C1861   1.362       .  D
C1861      C1904   1.443       .  S
C1862      H1867   1.087       .  S
C1862      C1863   1.363       .  D
C1863      C1902   1.439       .  S
N1868      H1900   1.038       .  S
N1868      C1873   1.351       .  A
N1868      C2265   1.351   1_554  A
N1869      C2662   1.353       .  A
N1869      C1877   1.351       .  A
N1870      H1901   1.036       .  S
N1870      C1875   1.355       .  A
N1870      C2267   1.355   1_554  A
N1871      C2664   1.352       .  A
N1871      C1879   1.351       .  A
C1872      N2261   1.351       .  A
C1872      C1880   1.387       .  A
C1872      C1888   1.408       .  A
C1873      C1889   1.409       .  A
C1873      C1881   1.388       .  A
C1874      N2263   1.355       .  A
C1874      C1882   1.387       .  A
C1874      C1891   1.418       .  A
C1875      C1890   1.419       .  A
C1875      C1883   1.387       .  A
C1876      N2655   1.353   1_545  A
C1876      C1888   1.412       .  A
C1876      C1884   1.386       .  A
C1877      C1891   1.415       .  A
C1877      C1885   1.389       .  A
C1878      N2657   1.352   1_545  A
C1878      C1886   1.386       .  A
C1878      C1889   1.411       .  A
C1879      C1887   1.389       .  A
C1879      C1890   1.415       .  A
C1880      C2274   1.375       .  A
C1880      H1892   1.082       .  S
C1881      C2273   1.375   1_554  A
C1881      H1893   1.082       .  S
C1882      C2276   1.379       .  A
C1882      H1894   1.082       .  S
C1883      C2275   1.379   1_554  A
C1883      H1895   1.082       .  S
C1884      C2671   1.374   1_545  A
C1884      H1896   1.083       .  S
C1885      C2670   1.374       .  A
C1885      H1897   1.082       .  S
C1886      C2673   1.375   1_545  A
C1886      H1898   1.083       .  S
C1887      C2672   1.375       .  A
C1887      H1899   1.082       .  S
C1888      C1939   1.448       .  S
C1889      C1903   1.448       .  S
C1890      C1923   1.454       .  S
C1891      C1945   1.454       .  S
C1902      C1903   1.205       .  T
C1904      C1905   1.207       .  T
C1906      C1907   1.207       .  T
C1908      C1909   1.207       .  T
C1910      C1911   1.206       .  T
C1912      C1913   1.204       .  T
C1914      C1915   1.211       .  T
C1916      C1917   1.203       .  T
C1918      C1919   1.206       .  T
C1920      C1921   1.212       .  T
C1922      C1923   1.208       .  T
C1924      C1925   1.206       .  T
C1926      C1927   1.204       .  T
C1928      C1929   1.205       .  T
C1930      C1931   1.208       .  T
C1932      C1933   1.210       .  T
C1934      C1935   1.205       .  T
C1936      C1937   1.204       .  T
C1938      C1939   1.205       .  T
C1940      C1941   1.207       .  T
C1942      C1943   1.206       .  T
C1944      C1945   1.208       .  T
C1946      C1947   1.212       .  T
C1948      C1949   1.207       .  T
C1950      C1951   1.214       .  T
C1952      C1953   1.206       .  T
C1954      C1955   1.209       .  T
C1956      C1957   1.214       .  T
C1958      C1959   1.207       .  T
C1960      C1961   1.209       .  T
C1962      C1963   1.206       .  T
C1964      C1965   1.208       .  T
O1966      C1974   1.272       .  A
O1966     Co1986   1.903       .  S
O1967      C1975   1.261       .  A
O1967     Co1987   1.990       .  S
O1968      C1976   1.296       .  A
O1968     Co1988   2.070       .  S
O1969      C1977   1.266       .  A
O1969     Co1989   2.018       .  S
O1970      C1976   1.272       .  A
O1970     Co1987   1.903       .  S
O1971      C1977   1.261       .  A
O1971     Co1986   1.990       .  S
O1972      C1975   1.266       .  A
O1972     Co1989   2.019       .  S
O1973      C1974   1.297       .  A
O1973     Co1988   2.071       .  S
C1974      C2353   1.440       .  S
C1975      C2343   1.448       .  S
C1976      C2348   1.439       .  S
C1977      C2349   1.448       .  S
O1978      C1991   1.270       .  A
O1978     Co1986   2.015       .  S
O1979      C1992   1.243       .  A
O1979     Co1987   1.965       .  S
O1980      C1993   1.252       .  A
O1980     Co1988   2.002       .  S
O1981      C1994   1.260       .  A
O1981     Co1989   1.972       .  S
O1982      C1994   1.270       .  A
O1982     Co1987   2.016       .  S
O1983      C1993   1.243       .  A
O1983     Co1986   1.967       .  S
O1984      C1991   1.260       .  A
O1984     Co1989   1.972       .  S
O1985      C1992   1.252       .  A
O1985     Co1988   2.001       .  S
Co1986     O1990   1.938       .  S
Co1987     O1990   1.940       .  S
Co1988     O1990   2.259       .  S
Co1989     O1990   2.085       .  S
C1991      C2355   1.434       .  S
C1992      C2351   1.435       .  S
C1993      C2357   1.437       .  S
C1994      C2346   1.434       .  S
C1995      C1996   1.537       .  S
C1995      C2001   1.542       .  S
C1995      C1999   1.546       .  S
C1995      C2344   1.483       .  S
C1996      H2003   1.086       .  S
C1996      C1997   1.364       .  D
C1997      C1998   1.533       .  S
C1997      C2342   1.442       .  S
C1998      C2002   1.532       .  S
C1998      C2000   1.533       .  S
C1998      H2004   1.112       .  S
C1999      H2005   1.086       .  S
C1999      C2000   1.369       .  D
C2000      C2340   1.451       .  S
C2001      H2006   1.086       .  S
C2001      C2002   1.367       .  D
C2002      C2337   1.445       .  S
C2007      C2008   1.534       .  S
C2007      C2013   1.542       .  S
C2007      C2011   1.533       .  S
C2007      C2345   1.468       .  S
C2008      H2015   1.087       .  S
C2008      C2009   1.363       .  D
C2009      C2010   1.536       .  S
C2009      C2331   1.440       .  S
C2010      C2014   1.532       .  S
C2010      C2012   1.537       .  S
C2010      H2016   1.112       .  S
C2011      H2017   1.087       .  S
C2011      C2012   1.361       .  D
C2012      C2335   1.442       .  S
C2013      H2018   1.086       .  S
C2013      C2014   1.367       .  D
C2014      C2334   1.442       .  S
C2019      C2020   1.534       .  S
C2019      C2025   1.541       .  S
C2019      C2023   1.541       .  S
C2019      C2347   1.473       .  S
C2020      H2027   1.087       .  S
C2020      C2021   1.361       .  D
C2021      C2022   1.532       .  S
C2021      C2330   1.437       .  S
C2022      C2026   1.530       .  S
C2022      C2024   1.535       .  S
C2022      H2028   1.112       .  S
C2023      H2029   1.086       .  S
C2023      C2024   1.367       .  D
C2024      C2326   1.448       .  S
C2025      H2030   1.086       .  S
C2025      C2026   1.366       .  D
C2026      C2328   1.439       .  S
C2031      C2032   1.536       .  S
C2031      C2037   1.539       .  S
C2031      C2035   1.539       .  S
C2031      C2352   1.469       .  S
C2032      H2039   1.087       .  S
C2032      C2033   1.363       .  D
C2033      C2034   1.532       .  S
C2033      C2320   1.438       .  S
C2034      C2038   1.531       .  S
C2034      C2036   1.533       .  S
C2034      H2040   1.112       .  S
C2035      H2041   1.086       .  S
C2035      C2036   1.364       .  D
C2036      C2323   1.444       .  S
C2037      H2042   1.086       .  S
C2037      C2038   1.365       .  D
C2038      C2322   1.440       .  S
N2043      H2075   1.037       .  S
N2043      C2047   1.353       .  A
N2044      C2837   1.352   1_545  A
N2044      C2052   1.351       .  A
N2045      H2076   1.037       .  S
N2045      C2049   1.352       .  A
N2046      C2839   1.352   1_545  A
N2046      C2054   1.352       .  A
C2047      C2055   1.388       .  A
C2047      C2063   1.414       .  A
C2048      C2064   1.414       .  A
C2048      C2056   1.387       .  A
C2049      C2057   1.388       .  A
C2049      C2066   1.414       .  A
C2050      C2065   1.414       .  A
C2050      C2058   1.388       .  A
C2051      N2830   1.352       .  A
C2051      C2063   1.413       .  A
C2051      C2059   1.387       .  A
C2052      C2066   1.413       .  A
C2052      C2060   1.388       .  A
C2053      N2832   1.352       .  A
C2053      C2061   1.387       .  A
C2053      C2064   1.414       .  A
C2054      C2062   1.387       .  A
C2054      C2065   1.414       .  A
C2055      H2067   1.082       .  S
C2056      H2068   1.082       .  S
C2057      H2069   1.082       .  S
C2058      H2070   1.082       .  S
C2059      C2846   1.374       .  A
C2059      H2071   1.083       .  S
C2060      C2845   1.374   1_545  A
C2060      H2072   1.083       .  S
C2061      C2848   1.374       .  A
C2061      H2073   1.083       .  S
C2062      C2847   1.374   1_545  A
C2062      H2074   1.082       .  S
C2063      C2327   1.450       .  S
C2064      C2341   1.451       .  S
C2065      C2333   1.452       .  S
C2066      C2319   1.448       .  S
C2077      C2078   1.542       .  S
C2077      C2083   1.537       .  S
C2077      C2081   1.546       .  S
C2077      C2350   1.483       .  S
C2078      H2085   1.086       .  S
C2078      C2079   1.367       .  D
C2079      C2080   1.531       .  S
C2079      C2315   1.444       .  S
C2080      C2084   1.533       .  S
C2080      C2082   1.532       .  S
C2080      H2086   1.112       .  S
C2081      H2087   1.086       .  S
C2081      C2082   1.369       .  D
C2082      C2314   1.450       .  S
C2083      H2088   1.086       .  S
C2083      C2084   1.364       .  D
C2084      C2318   1.442       .  S
C2089      C2090   1.541       .  S
C2089      C2095   1.534       .  S
C2089      C2093   1.542       .  S
C2089      C2354   1.473       .  S
C2090      H2097   1.086       .  S
C2090      C2091   1.366       .  D
C2091      C2092   1.530       .  S
C2091      C2312   1.440       .  S
C2092      C2096   1.532       .  S
C2092      C2094   1.535       .  S
C2092      H2098   1.112       .  S
C2093      H2099   1.086       .  S
C2093      C2094   1.367       .  D
C2094      C2308   1.450       .  S
C2095      H2100   1.087       .  S
C2095      C2096   1.361       .  D
C2096      C2309   1.436       .  S
N2101      H2133   1.037       .  S
N2101      C2105   1.356       .  A
N2102      C2109   1.355       .  A
N2103      H2134   1.038       .  S
N2103      C2107   1.358       .  A
N2104      C2111   1.354       .  A
C2105      C2113   1.388       .  A
C2105      C2121   1.418       .  A
C2106      C2122   1.417       .  A
C2106      C2114   1.388       .  A
C2107      C2115   1.388       .  A
C2107      C2124   1.422       .  A
C2108      C2123   1.421       .  A
C2108      C2116   1.388       .  A
C2109      C2121   1.416       .  A
C2109      C2117   1.386       .  A
C2110      C2124   1.417       .  A
C2110      C2118   1.388       .  A
C2111      C2119   1.386       .  A
C2111      C2122   1.416       .  A
C2112      C2120   1.387       .  A
C2112      C2123   1.416       .  A
C2113      H2125   1.082       .  S
C2114      H2126   1.082       .  S
C2115      H2127   1.082       .  S
C2116      H2128   1.083       .  S
C2117      H2129   1.082       .  S
C2118      H2130   1.082       .  S
C2119      H2131   1.082       .  S
C2120      H2132   1.082       .  S
C2121      C2307   1.459       .  S
C2122      C2325   1.458       .  S
C2123      C2339   1.461       .  S
C2124      C2313   1.460       .  S
C2135      C2136   1.540       .  S
C2135      C2141   1.536       .  S
C2135      C2139   1.540       .  S
C2135      C2358   1.471       .  S
C2136      H2143   1.086       .  S
C2136      C2137   1.366       .  D
C2137      C2138   1.530       .  S
C2137      C2303   1.440       .  S
C2138      C2142   1.531       .  S
C2138      C2140   1.533       .  S
C2138      H2144   1.112       .  S
C2139      H2145   1.086       .  S
C2139      C2140   1.364       .  D
C2140      C2301   1.443       .  S
C2141      H2146   1.086       .  S
C2141      C2142   1.363       .  D
C2142      C2306   1.438       .  S
N2147      H2179   1.037       .  S
N2147      C2152   1.353       .  A
N2148      C2941   1.352   1_545  A
N2148      C2156   1.352       .  A
N2149      H2180   1.037       .  S
N2149      C2154   1.352       .  A
N2150      C2943   1.351   1_545  A
N2150      C2158   1.351       .  A
C2151      C2159   1.387       .  A
C2151      C2167   1.414       .  A
C2152      C2168   1.414       .  A
C2152      C2160   1.387       .  A
C2153      C2161   1.387       .  A
C2153      C2170   1.414       .  A
C2154      C2169   1.413       .  A
C2154      C2162   1.387       .  A
C2155      N2934   1.352       .  A
C2155      C2167   1.414       .  A
C2155      C2163   1.387       .  A
C2156      C2170   1.413       .  A
C2156      C2164   1.387       .  A
C2157      N2936   1.351       .  A
C2157      C2165   1.387       .  A
C2157      C2168   1.413       .  A
C2158      C2166   1.387       .  A
C2158      C2169   1.412       .  A
C2159      H2171   1.082       .  S
C2160      H2172   1.082       .  S
C2161      H2173   1.082       .  S
C2162      H2174   1.082       .  S
C2163      C2950   1.374       .  A
C2163      H2175   1.082       .  S
C2164      C2949   1.374   1_545  A
C2164      H2176   1.082       .  S
C2165      C2952   1.374       .  A
C2165      H2177   1.082       .  S
C2166      C2951   1.374   1_545  A
C2166      H2178   1.082       .  S
C2167      C2317   1.451       .  S
C2168      C2311   1.450       .  S
C2169      C2305   1.448       .  S
C2170      C2299   1.452       .  S
N2181      H2213   1.038       .  S
N2181      C2186   1.351       .  A
N2182      C2975   1.351   1_545  A
N2182      C2190   1.350       .  A
N2183      H2214   1.038       .  S
N2183      C2188   1.353       .  A
N2184      C2977   1.350   1_545  A
N2184      C2192   1.350       .  A
C2185      C2193   1.387       .  A
C2185      C2201   1.409       .  A
C2186      C2202   1.409       .  A
C2186      C2194   1.388       .  A
C2187      C2195   1.387       .  A
C2187      C2204   1.413       .  A
C2188      C2203   1.413       .  A
C2188      C2196   1.387       .  A
C2189      N2968   1.351       .  A
C2189      C2201   1.411       .  A
C2189      C2197   1.386       .  A
C2190      C2204   1.412       .  A
C2190      C2198   1.388       .  A
C2191      N2970   1.350       .  A
C2191      C2199   1.387       .  A
C2191      C2202   1.410       .  A
C2192      C2200   1.388       .  A
C2192      C2203   1.411       .  A
C2193      H2205   1.082       .  S
C2194      H2206   1.082       .  S
C2195      H2207   1.082       .  S
C2196      H2208   1.082       .  S
C2197      C2984   1.375       .  A
C2197      H2209   1.082       .  S
C2198      C2983   1.375   1_545  A
C2198      H2210   1.082       .  S
C2199      C2986   1.375       .  A
C2199      H2211   1.082       .  S
C2200      C2985   1.375   1_545  A
C2200      H2212   1.082       .  S
C2201      C2329   1.446       .  S
C2202      C2310   1.445       .  S
C2203      C2304   1.449       .  S
C2204      C2321   1.449       .  S
N2215      H2247   1.038       .  S
N2215      C2220   1.354       .  A
N2216      C2223   1.350       .  A
N2217      H2248   1.038       .  S
N2217      C2222   1.355       .  A
N2218      C2225   1.353       .  A
C2219      C2227   1.387       .  A
C2219      C2235   1.416       .  A
C2220      C2236   1.416       .  A
C2220      C2228   1.389       .  A
C2221      C2229   1.387       .  A
C2221      C2238   1.416       .  A
C2222      C2237   1.417       .  A
C2222      C2230   1.389       .  A
C2223      C2235   1.409       .  A
C2223      C2231   1.387       .  A
C2224      C2238   1.409       .  A
C2224      C2232   1.387       .  A
C2225      C2233   1.387       .  A
C2225      C2236   1.415       .  A
C2226      C2234   1.387       .  A
C2226      C2237   1.415       .  A
C2227      H2239   1.082       .  S
C2228      H2240   1.082       .  S
C2229      H2241   1.082       .  S
C2230      H2242   1.082       .  S
C2231      H2243   1.082       .  S
C2232      H2244   1.083       .  S
C2233      H2245   1.082       .  S
C2234      H2246   1.082       .  S
C2235      C2298   1.452       .  S
C2236      C2302   1.453       .  S
C2237      C2324   1.454       .  S
C2238      C2336   1.451       .  S
C2249      C2250   1.543       .  S
C2249      C2255   1.534       .  S
C2249      C2253   1.534       .  S
C2249      C2356   1.468       .  S
C2250      H2257   1.086       .  S
C2250      C2251   1.367       .  D
C2251      C2252   1.531       .  S
C2251      C2300   1.442       .  S
C2252      C2256   1.535       .  S
C2252      C2254   1.537       .  S
C2252      H2258   1.112       .  S
C2253      H2259   1.087       .  S
C2253      C2254   1.362       .  D
C2254      C2297   1.443       .  S
C2255      H2260   1.087       .  S
C2255      C2256   1.363       .  D
C2256      C2295   1.439       .  S
N2261      H2293   1.038       .  S
N2261      C2266   1.351       .  A
N2262      C3055   1.353       .  A
N2262      C2270   1.351       .  A
N2263      H2294   1.036       .  S
N2263      C2268   1.355       .  A
N2264      C3057   1.352       .  A
N2264      C2272   1.351       .  A
C2265      C2273   1.387       .  A
C2265      C2281   1.408       .  A
C2266      C2282   1.409       .  A
C2266      C2274   1.388       .  A
C2267      C2275   1.387       .  A
C2267      C2284   1.419       .  A
C2268      C2283   1.419       .  A
C2268      C2276   1.387       .  A
C2269      N3048   1.353   1_545  A
C2269      C2281   1.412       .  A
C2269      C2277   1.386       .  A
C2270      C2284   1.415       .  A
C2270      C2278   1.389       .  A
C2271      N3050   1.352   1_545  A
C2271      C2279   1.386       .  A
C2271      C2282   1.411       .  A
C2272      C2280   1.389       .  A
C2272      C2283   1.415       .  A
C2273      H2285   1.082       .  S
C2274      H2286   1.082       .  S
C2275      H2287   1.082       .  S
C2276      H2288   1.082       .  S
C2277      C3064   1.374   1_545  A
C2277      H2289   1.083       .  S
C2278      C3063   1.374       .  A
C2278      H2290   1.082       .  S
C2279      C3066   1.375   1_545  A
C2279      H2291   1.083       .  S
C2280      C3065   1.375       .  A
C2280      H2292   1.082       .  S
C2281      C2332   1.448       .  S
C2282      C2296   1.447       .  S
C2283      C2316   1.454       .  S
C2284      C2338   1.454       .  S
C2295      C2296   1.205       .  T
C2297      C2298   1.207       .  T
C2299      C2300   1.207       .  T
C2301      C2302   1.207       .  T
C2303      C2304   1.206       .  T
C2305      C2306   1.204       .  T
C2307      C2308   1.211       .  T
C2309      C2310   1.203       .  T
C2311      C2312   1.206       .  T
C2313      C2314   1.212       .  T
C2315      C2316   1.208       .  T
C2317      C2318   1.206       .  T
C2319      C2320   1.204       .  T
C2321      C2322   1.205       .  T
C2323      C2324   1.208       .  T
C2325      C2326   1.210       .  T
C2327      C2328   1.205       .  T
C2329      C2330   1.204       .  T
C2331      C2332   1.205       .  T
C2333      C2334   1.207       .  T
C2335      C2336   1.206       .  T
C2337      C2338   1.208       .  T
C2339      C2340   1.212       .  T
C2341      C2342   1.207       .  T
C2343      C2344   1.214       .  T
C2345      C2346   1.206       .  T
C2347      C2348   1.209       .  T
C2349      C2350   1.214       .  T
C2351      C2352   1.207       .  T
C2353      C2354   1.209       .  T
C2355      C2356   1.206       .  T
C2357      C2358   1.208       .  T
O2359      C2367   1.272       .  A
O2359     Co2379   1.903       .  S
O2360      C2368   1.261       .  A
O2360     Co2380   1.990       .  S
O2361      C2369   1.296       .  A
O2361     Co2381   2.070       .  S
O2362      C2370   1.266       .  A
O2362     Co2382   2.018       .  S
O2363      C2369   1.272       .  A
O2363     Co2380   1.903       .  S
O2364      C2370   1.261       .  A
O2364     Co2379   1.990       .  S
O2365      C2368   1.266       .  A
O2365     Co2382   2.019       .  S
O2366      C2367   1.297       .  A
O2366     Co2381   2.071       .  S
C2367      C2746   1.440       .  S
C2368      C2736   1.448       .  S
C2369      C2741   1.439       .  S
C2370      C2742   1.448       .  S
O2371      C2384   1.270       .  A
O2371     Co2379   2.016       .  S
O2372      C2385   1.243       .  A
O2372     Co2380   1.965       .  S
O2373      C2386   1.252       .  A
O2373     Co2381   2.001       .  S
O2374      C2387   1.260       .  A
O2374     Co2382   1.972       .  S
O2375      C2387   1.270       .  A
O2375     Co2380   2.016       .  S
O2376      C2386   1.243       .  A
O2376     Co2379   1.967       .  S
O2377      C2384   1.260       .  A
O2377     Co2382   1.972       .  S
O2378      C2385   1.252       .  A
O2378     Co2381   2.001       .  S
Co2379     O2383   1.938       .  S
Co2380     O2383   1.940       .  S
Co2381     O2383   2.259       .  S
Co2382     O2383   2.085       .  S
C2384      C2748   1.434       .  S
C2385      C2744   1.435       .  S
C2386      C2750   1.437       .  S
C2387      C2739   1.434       .  S
C2388      C2389   1.537       .  S
C2388      C2394   1.542       .  S
C2388      C2392   1.546       .  S
C2388      C2737   1.483       .  S
C2389      H2396   1.086       .  S
C2389      C2390   1.364       .  D
C2390      C2391   1.533       .  S
C2390      C2735   1.442       .  S
C2391      C2395   1.532       .  S
C2391      C2393   1.533       .  S
C2391      H2397   1.112       .  S
C2392      H2398   1.086       .  S
C2392      C2393   1.369       .  D
C2393      C2733   1.450       .  S
C2394      H2399   1.086       .  S
C2394      C2395   1.367       .  D
C2395      C2730   1.445       .  S
C2400      C2401   1.534       .  S
C2400      C2406   1.542       .  S
C2400      C2404   1.533       .  S
C2400      C2738   1.468       .  S
C2401      H2408   1.087       .  S
C2401      C2402   1.363       .  D
C2402      C2403   1.536       .  S
C2402      C2724   1.440       .  S
C2403      C2407   1.532       .  S
C2403      C2405   1.537       .  S
C2403      H2409   1.112       .  S
C2404      H2410   1.087       .  S
C2404      C2405   1.361       .  D
C2405      C2728   1.442       .  S
C2406      H2411   1.086       .  S
C2406      C2407   1.367       .  D
C2407      C2727   1.442       .  S
C2412      C2413   1.534       .  S
C2412      C2418   1.541       .  S
C2412      C2416   1.541       .  S
C2412      C2740   1.473       .  S
C2413      H2420   1.087       .  S
C2413      C2414   1.361       .  D
C2414      C2415   1.532       .  S
C2414      C2723   1.437       .  S
C2415      C2419   1.530       .  S
C2415      C2417   1.535       .  S
C2415      H2421   1.112       .  S
C2416      H2422   1.086       .  S
C2416      C2417   1.367       .  D
C2417      C2719   1.448       .  S
C2418      H2423   1.086       .  S
C2418      C2419   1.366       .  D
C2419      C2721   1.439       .  S
C2424      C2425   1.536       .  S
C2424      C2430   1.539       .  S
C2424      C2428   1.539       .  S
C2424      C2745   1.469       .  S
C2425      H2432   1.087       .  S
C2425      C2426   1.363       .  D
C2426      C2427   1.532       .  S
C2426      C2713   1.438       .  S
C2427      C2431   1.532       .  S
C2427      C2429   1.533       .  S
C2427      H2433   1.112       .  S
C2428      H2434   1.086       .  S
C2428      C2429   1.364       .  D
C2429      C2716   1.444       .  S
C2430      H2435   1.086       .  S
C2430      C2431   1.365       .  D
C2431      C2715   1.440       .  S
N2436      H2468   1.037       .  S
N2436      C2440   1.353       .  A
N2437      C2445   1.351       .  A
N2438      H2469   1.037       .  S
N2438      C2442   1.352       .  A
N2439      C2447   1.352       .  A
C2440      C2448   1.388       .  A
C2440      C2456   1.414       .  A
C2441      C2457   1.414       .  A
C2441      C2449   1.387       .  A
C2442      C2450   1.388       .  A
C2442      C2459   1.414       .  A
C2443      C2458   1.414       .  A
C2443      C2451   1.388       .  A
C2444      C2456   1.413       .  A
C2444      C2452   1.387       .  A
C2445      C2459   1.413       .  A
C2445      C2453   1.388       .  A
C2446      C2454   1.387       .  A
C2446      C2457   1.414       .  A
C2447      C2455   1.387       .  A
C2447      C2458   1.414       .  A
C2448      H2460   1.082       .  S
C2449      H2461   1.082       .  S
C2450      H2462   1.082       .  S
C2451      H2463   1.082       .  S
C2452      H2464   1.083       .  S
C2453      H2465   1.083       .  S
C2454      H2466   1.083       .  S
C2455      H2467   1.082       .  S
C2456      C2720   1.450       .  S
C2457      C2734   1.451       .  S
C2458      C2726   1.452       .  S
C2459      C2712   1.448       .  S
C2470      C2471   1.542       .  S
C2470      C2476   1.537       .  S
C2470      C2474   1.546       .  S
C2470      C2743   1.483       .  S
C2471      H2478   1.086       .  S
C2471      C2472   1.367       .  D
C2472      C2473   1.531       .  S
C2472      C2708   1.444       .  S
C2473      C2477   1.533       .  S
C2473      C2475   1.532       .  S
C2473      H2479   1.112       .  S
C2474      H2480   1.086       .  S
C2474      C2475   1.369       .  D
C2475      C2707   1.450       .  S
C2476      H2481   1.086       .  S
C2476      C2477   1.364       .  D
C2477      C2711   1.442       .  S
C2482      C2483   1.541       .  S
C2482      C2488   1.534       .  S
C2482      C2486   1.542       .  S
C2482      C2747   1.473       .  S
C2483      H2490   1.086       .  S
C2483      C2484   1.366       .  D
C2484      C2485   1.530       .  S
C2484      C2705   1.440       .  S
C2485      C2489   1.532       .  S
C2485      C2487   1.535       .  S
C2485      H2491   1.112       .  S
C2486      H2492   1.086       .  S
C2486      C2487   1.367       .  D
C2487      C2701   1.450       .  S
C2488      H2493   1.087       .  S
C2488      C2489   1.361       .  D
C2489      C2702   1.436       .  S
N2494      H2526   1.037       .  S
N2494      C2892   1.355   1_554  A
N2494      C2498   1.356       .  A
N2495      C2502   1.355       .  A
N2496      H2527   1.038       .  S
N2496      C2894   1.358   1_554  A
N2496      C2500   1.358       .  A
N2497      C2504   1.354       .  A
C2498      C2506   1.388       .  A
C2498      C2514   1.418       .  A
C2499      N2887   1.355       .  A
C2499      C2515   1.417       .  A
C2499      C2507   1.388       .  A
C2500      C2508   1.388       .  A
C2500      C2517   1.422       .  A
C2501      N2889   1.358       .  A
C2501      C2516   1.421       .  A
C2501      C2509   1.388       .  A
C2502      C2514   1.416       .  A
C2502      C2510   1.386       .  A
C2503      C2517   1.417       .  A
C2503      C2511   1.388       .  A
C2504      C2512   1.386       .  A
C2504      C2515   1.416       .  A
C2505      C2513   1.387       .  A
C2505      C2516   1.416       .  A
C2506      C2900   1.373   1_554  A
C2506      H2518   1.082       .  S
C2507      C2899   1.373       .  A
C2507      H2519   1.082       .  S
C2508      C2902   1.377   1_554  A
C2508      H2520   1.082       .  S
C2509      C2901   1.377       .  A
C2509      H2521   1.083       .  S
C2510      H2522   1.082       .  S
C2511      H2523   1.082       .  S
C2512      H2524   1.082       .  S
C2513      H2525   1.082       .  S
C2514      C2700   1.459       .  S
C2515      C2718   1.458       .  S
C2516      C2732   1.460       .  S
C2517      C2706   1.460       .  S
C2528      C2529   1.540       .  S
C2528      C2534   1.536       .  S
C2528      C2532   1.540       .  S
C2528      C2751   1.471       .  S
C2529      H2536   1.086       .  S
C2529      C2530   1.366       .  D
C2530      C2531   1.530       .  S
C2530      C2696   1.440       .  S
C2531      C2535   1.531       .  S
C2531      C2533   1.533       .  S
C2531      H2537   1.112       .  S
C2532      H2538   1.086       .  S
C2532      C2533   1.364       .  D
C2533      C2694   1.443       .  S
C2534      H2539   1.086       .  S
C2534      C2535   1.363       .  D
C2535      C2699   1.438       .  S
N2540      H2572   1.037       .  S
N2540      C2545   1.353       .  A
N2541      C2549   1.352       .  A
N2542      H2573   1.037       .  S
N2542      C2547   1.352       .  A
N2543      C2551   1.351       .  A
C2544      C2552   1.387       .  A
C2544      C2560   1.414       .  A
C2545      C2561   1.414       .  A
C2545      C2553   1.387       .  A
C2546      C2554   1.387       .  A
C2546      C2563   1.414       .  A
C2547      C2562   1.413       .  A
C2547      C2555   1.387       .  A
C2548      C2560   1.414       .  A
C2548      C2556   1.387       .  A
C2549      C2563   1.413       .  A
C2549      C2557   1.387       .  A
C2550      C2558   1.387       .  A
C2550      C2561   1.413       .  A
C2551      C2559   1.387       .  A
C2551      C2562   1.412       .  A
C2552      H2564   1.082       .  S
C2553      H2565   1.082       .  S
C2554      H2566   1.082       .  S
C2555      H2567   1.082       .  S
C2556      H2568   1.082       .  S
C2557      H2569   1.082       .  S
C2558      H2570   1.082       .  S
C2559      H2571   1.082       .  S
C2560      C2710   1.451       .  S
C2561      C2704   1.450       .  S
C2562      C2698   1.448       .  S
C2563      C2692   1.452       .  S
N2574      H2606   1.038       .  S
N2574      C2579   1.351       .  A
N2574      C2971   1.351   1_554  A
N2575      C2583   1.350       .  A
N2576      H2607   1.038       .  S
N2576      C2581   1.353       .  A
N2576      C2973   1.352   1_554  A
N2577      C2585   1.350       .  A
C2578      N2967   1.351       .  A
C2578      C2586   1.387       .  A
C2578      C2594   1.409       .  A
C2579      C2595   1.410       .  A
C2579      C2587   1.388       .  A
C2580      N2969   1.352       .  A
C2580      C2588   1.387       .  A
C2580      C2597   1.413       .  A
C2581      C2596   1.413       .  A
C2581      C2589   1.387       .  A
C2582      C2594   1.411       .  A
C2582      C2590   1.386       .  A
C2583      C2597   1.412       .  A
C2583      C2591   1.388       .  A
C2584      C2592   1.387       .  A
C2584      C2595   1.410       .  A
C2585      C2593   1.388       .  A
C2585      C2596   1.411       .  A
C2586      C2980   1.374       .  A
C2586      H2598   1.082       .  S
C2587      C2979   1.374   1_554  A
C2587      H2599   1.082       .  S
C2588      C2982   1.378       .  A
C2588      H2600   1.082       .  S
C2589      C2981   1.378   1_554  A
C2589      H2601   1.082       .  S
C2590      H2602   1.082       .  S
C2591      H2603   1.082       .  S
C2592      H2604   1.082       .  S
C2593      H2605   1.082       .  S
C2594      C2722   1.446       .  S
C2595      C2703   1.445       .  S
C2596      C2697   1.449       .  S
C2597      C2714   1.449       .  S
N2608      H2640   1.038       .  S
N2608      C2613   1.354       .  A
N2609      C2616   1.350       .  A
N2609      C3010   1.350   1_554  A
N2610      H2641   1.038       .  S
N2610      C2615   1.355       .  A
N2611      C2618   1.353       .  A
N2611      C3012   1.353   1_554  A
C2612      C2620   1.387       .  A
C2612      C2628   1.416       .  A
C2613      C2629   1.416       .  A
C2613      C2621   1.389       .  A
C2614      C2622   1.387       .  A
C2614      C2631   1.416       .  A
C2615      C2630   1.417       .  A
C2615      C2623   1.389       .  A
C2616      C2628   1.409       .  A
C2616      C2624   1.387       .  A
C2617      N3002   1.350       .  A
C2617      C2631   1.409       .  A
C2617      C2625   1.387       .  A
C2618      C2626   1.387       .  A
C2618      C2629   1.415       .  A
C2619      N3004   1.353       .  A
C2619      C2627   1.387       .  A
C2619      C2630   1.415       .  A
C2620      H2632   1.082       .  S
C2621      H2633   1.082       .  S
C2622      H2634   1.082       .  S
C2623      H2635   1.082       .  S
C2624      C3018   1.371   1_554  A
C2624      H2636   1.082       .  S
C2625      C3017   1.371       .  A
C2625      H2637   1.083       .  S
C2626      C3020   1.373   1_554  A
C2626      H2638   1.082       .  S
C2627      C3019   1.373       .  A
C2627      H2639   1.082       .  S
C2628      C2691   1.452       .  S
C2629      C2695   1.453       .  S
C2630      C2717   1.454       .  S
C2631      C2729   1.451       .  S
C2642      C2643   1.543       .  S
C2642      C2648   1.534       .  S
C2642      C2646   1.534       .  S
C2642      C2749   1.468       .  S
C2643      H2650   1.086       .  S
C2643      C2644   1.367       .  D
C2644      C2645   1.531       .  S
C2644      C2693   1.442       .  S
C2645      C2649   1.535       .  S
C2645      C2647   1.537       .  S
C2645      H2651   1.112       .  S
C2646      H2652   1.087       .  S
C2646      C2647   1.362       .  D
C2647      C2690   1.443       .  S
C2648      H2653   1.087       .  S
C2648      C2649   1.363       .  D
C2649      C2688   1.439       .  S
N2654      H2686   1.038       .  S
N2654      C2659   1.351       .  A
N2654      C3051   1.351   1_554  A
N2655      C2663   1.351       .  A
N2656      H2687   1.036       .  S
N2656      C2661   1.355       .  A
N2656      C3053   1.355   1_554  A
N2657      C2665   1.351       .  A
C2658      N3047   1.351       .  A
C2658      C2666   1.387       .  A
C2658      C2674   1.408       .  A
C2659      C2675   1.409       .  A
C2659      C2667   1.388       .  A
C2660      N3049   1.355       .  A
C2660      C2668   1.387       .  A
C2660      C2677   1.418       .  A
C2661      C2676   1.419       .  A
C2661      C2669   1.387       .  A
C2662      C2674   1.412       .  A
C2662      C2670   1.386       .  A
C2663      C2677   1.415       .  A
C2663      C2671   1.389       .  A
C2664      C2672   1.386       .  A
C2664      C2675   1.412       .  A
C2665      C2673   1.389       .  A
C2665      C2676   1.415       .  A
C2666      C3060   1.375       .  A
C2666      H2678   1.082       .  S
C2667      C3059   1.375   1_554  A
C2667      H2679   1.082       .  S
C2668      C3062   1.379       .  A
C2668      H2680   1.082       .  S
C2669      C3061   1.379   1_554  A
C2669      H2681   1.082       .  S
C2670      H2682   1.083       .  S
C2671      H2683   1.082       .  S
C2672      H2684   1.083       .  S
C2673      H2685   1.082       .  S
C2674      C2725   1.448       .  S
C2675      C2689   1.448       .  S
C2676      C2709   1.454       .  S
C2677      C2731   1.454       .  S
C2688      C2689   1.205       .  T
C2690      C2691   1.207       .  T
C2692      C2693   1.207       .  T
C2694      C2695   1.207       .  T
C2696      C2697   1.206       .  T
C2698      C2699   1.204       .  T
C2700      C2701   1.211       .  T
C2702      C2703   1.203       .  T
C2704      C2705   1.206       .  T
C2706      C2707   1.212       .  T
C2708      C2709   1.208       .  T
C2710      C2711   1.206       .  T
C2712      C2713   1.204       .  T
C2714      C2715   1.205       .  T
C2716      C2717   1.208       .  T
C2718      C2719   1.210       .  T
C2720      C2721   1.205       .  T
C2722      C2723   1.204       .  T
C2724      C2725   1.205       .  T
C2726      C2727   1.207       .  T
C2728      C2729   1.206       .  T
C2730      C2731   1.208       .  T
C2732      C2733   1.212       .  T
C2734      C2735   1.207       .  T
C2736      C2737   1.214       .  T
C2738      C2739   1.206       .  T
C2740      C2741   1.209       .  T
C2742      C2743   1.214       .  T
C2744      C2745   1.207       .  T
C2746      C2747   1.209       .  T
C2748      C2749   1.206       .  T
C2750      C2751   1.208       .  T
O2752      C2760   1.272       .  A
O2752     Co2772   1.903       .  S
O2753      C2761   1.261       .  A
O2753     Co2773   1.990       .  S
O2754      C2762   1.296       .  A
O2754     Co2774   2.070       .  S
O2755      C2763   1.266       .  A
O2755     Co2775   2.018       .  S
O2756      C2762   1.272       .  A
O2756     Co2773   1.903       .  S
O2757      C2763   1.261       .  A
O2757     Co2772   1.990       .  S
O2758      C2761   1.266       .  A
O2758     Co2775   2.019       .  S
O2759      C2760   1.297       .  A
O2759     Co2774   2.071       .  S
C2760      C3139   1.440       .  S
C2761      C3129   1.448       .  S
C2762      C3134   1.439       .  S
C2763      C3135   1.448       .  S
O2764      C2777   1.270       .  A
O2764     Co2772   2.015       .  S
O2765      C2778   1.243       .  A
O2765     Co2773   1.964       .  S
O2766      C2779   1.252       .  A
O2766     Co2774   2.002       .  S
O2767      C2780   1.260       .  A
O2767     Co2775   1.972       .  S
O2768      C2780   1.270       .  A
O2768     Co2773   2.016       .  S
O2769      C2779   1.243       .  A
O2769     Co2772   1.967       .  S
O2770      C2777   1.260       .  A
O2770     Co2775   1.972       .  S
O2771      C2778   1.252       .  A
O2771     Co2774   2.001       .  S
Co2772     O2776   1.938       .  S
Co2773     O2776   1.940       .  S
Co2774     O2776   2.259       .  S
Co2775     O2776   2.085       .  S
C2777      C3141   1.434       .  S
C2778      C3137   1.435       .  S
C2779      C3143   1.437       .  S
C2780      C3132   1.434       .  S
C2781      C2782   1.537       .  S
C2781      C2787   1.542       .  S
C2781      C2785   1.546       .  S
C2781      C3130   1.483       .  S
C2782      H2789   1.086       .  S
C2782      C2783   1.364       .  D
C2783      C2784   1.533       .  S
C2783      C3128   1.442       .  S
C2784      C2788   1.532       .  S
C2784      C2786   1.533       .  S
C2784      H2790   1.112       .  S
C2785      H2791   1.086       .  S
C2785      C2786   1.369       .  D
C2786      C3126   1.451       .  S
C2787      H2792   1.086       .  S
C2787      C2788   1.367       .  D
C2788      C3123   1.445       .  S
C2793      C2794   1.534       .  S
C2793      C2799   1.542       .  S
C2793      C2797   1.533       .  S
C2793      C3131   1.468       .  S
C2794      H2801   1.087       .  S
C2794      C2795   1.363       .  D
C2795      C2796   1.536       .  S
C2795      C3117   1.440       .  S
C2796      C2800   1.532       .  S
C2796      C2798   1.537       .  S
C2796      H2802   1.112       .  S
C2797      H2803   1.087       .  S
C2797      C2798   1.361       .  D
C2798      C3121   1.442       .  S
C2799      H2804   1.086       .  S
C2799      C2800   1.367       .  D
C2800      C3120   1.442       .  S
C2805      C2806   1.534       .  S
C2805      C2811   1.541       .  S
C2805      C2809   1.541       .  S
C2805      C3133   1.473       .  S
C2806      H2813   1.087       .  S
C2806      C2807   1.361       .  D
C2807      C2808   1.532       .  S
C2807      C3116   1.437       .  S
C2808      C2812   1.530       .  S
C2808      C2810   1.535       .  S
C2808      H2814   1.112       .  S
C2809      H2815   1.086       .  S
C2809      C2810   1.367       .  D
C2810      C3112   1.448       .  S
C2811      H2816   1.086       .  S
C2811      C2812   1.366       .  D
C2812      C3114   1.439       .  S
C2817      C2818   1.536       .  S
C2817      C2823   1.539       .  S
C2817      C2821   1.539       .  S
C2817      C3138   1.469       .  S
C2818      H2825   1.087       .  S
C2818      C2819   1.363       .  D
C2819      C2820   1.532       .  S
C2819      C3106   1.438       .  S
C2820      C2824   1.531       .  S
C2820      C2822   1.533       .  S
C2820      H2826   1.112       .  S
C2821      H2827   1.086       .  S
C2821      C2822   1.364       .  D
C2822      C3109   1.444       .  S
C2823      H2828   1.086       .  S
C2823      C2824   1.365       .  D
C2824      C3108   1.440       .  S
N2829      H2861   1.037       .  S
N2829      C2833   1.353       .  A
N2830      C2838   1.351       .  A
N2831      H2862   1.037       .  S
N2831      C2835   1.352       .  A
N2832      C2840   1.352       .  A
C2833      C2841   1.388       .  A
C2833      C2849   1.414       .  A
C2834      C2850   1.414       .  A
C2834      C2842   1.387       .  A
C2835      C2843   1.388       .  A
C2835      C2852   1.414       .  A
C2836      C2851   1.414       .  A
C2836      C2844   1.388       .  A
C2837      C2849   1.413       .  A
C2837      C2845   1.387       .  A
C2838      C2852   1.413       .  A
C2838      C2846   1.388       .  A
C2839      C2847   1.387       .  A
C2839      C2850   1.414       .  A
C2840      C2848   1.387       .  A
C2840      C2851   1.414       .  A
C2841      H2853   1.082       .  S
C2842      H2854   1.082       .  S
C2843      H2855   1.082       .  S
C2844      H2856   1.082       .  S
C2845      H2857   1.083       .  S
C2846      H2858   1.083       .  S
C2847      H2859   1.083       .  S
C2848      H2860   1.082       .  S
C2849      C3113   1.450       .  S
C2850      C3127   1.451       .  S
C2851      C3119   1.452       .  S
C2852      C3105   1.448       .  S
C2863      C2864   1.542       .  S
C2863      C2869   1.537       .  S
C2863      C2867   1.546       .  S
C2863      C3136   1.483       .  S
C2864      H2871   1.086       .  S
C2864      C2865   1.367       .  D
C2865      C2866   1.531       .  S
C2865      C3101   1.444       .  S
C2866      C2870   1.533       .  S
C2866      C2868   1.532       .  S
C2866      H2872   1.112       .  S
C2867      H2873   1.086       .  S
C2867      C2868   1.369       .  D
C2868      C3100   1.450       .  S
C2869      H2874   1.086       .  S
C2869      C2870   1.364       .  D
C2870      C3104   1.442       .  S
C2875      C2876   1.541       .  S
C2875      C2881   1.534       .  S
C2875      C2879   1.542       .  S
C2875      C3140   1.473       .  S
C2876      H2883   1.086       .  S
C2876      C2877   1.366       .  D
C2877      C2878   1.530       .  S
C2877      C3098   1.440       .  S
C2878      C2882   1.532       .  S
C2878      C2880   1.535       .  S
C2878      H2884   1.112       .  S
C2879      H2885   1.086       .  S
C2879      C2880   1.367       .  D
C2880      C3094   1.450       .  S
C2881      H2886   1.087       .  S
C2881      C2882   1.361       .  D
C2882      C3095   1.436       .  S
N2887      H2919   1.037       .  S
N2887      C2891   1.356       .  A
N2888      C2895   1.355       .  A
N2889      H2920   1.038       .  S
N2889      C2893   1.358       .  A
N2890      C2897   1.354       .  A
C2891      C2899   1.388       .  A
C2891      C2907   1.418       .  A
C2892      C2908   1.417       .  A
C2892      C2900   1.388       .  A
C2893      C2901   1.388       .  A
C2893      C2910   1.422       .  A
C2894      C2909   1.421       .  A
C2894      C2902   1.388       .  A
C2895      C2907   1.416       .  A
C2895      C2903   1.386       .  A
C2896      C2910   1.417       .  A
C2896      C2904   1.388       .  A
C2897      C2905   1.386       .  A
C2897      C2908   1.416       .  A
C2898      C2906   1.387       .  A
C2898      C2909   1.416       .  A
C2899      H2911   1.082       .  S
C2900      H2912   1.082       .  S
C2901      H2913   1.082       .  S
C2902      H2914   1.083       .  S
C2903      H2915   1.082       .  S
C2904      H2916   1.082       .  S
C2905      H2917   1.082       .  S
C2906      H2918   1.082       .  S
C2907      C3093   1.459       .  S
C2908      C3111   1.458       .  S
C2909      C3125   1.460       .  S
C2910      C3099   1.460       .  S
C2921      C2922   1.540       .  S
C2921      C2927   1.536       .  S
C2921      C2925   1.540       .  S
C2921      C3144   1.471       .  S
C2922      H2929   1.086       .  S
C2922      C2923   1.366       .  D
C2923      C2924   1.530       .  S
C2923      C3089   1.440       .  S
C2924      C2928   1.531       .  S
C2924      C2926   1.533       .  S
C2924      H2930   1.112       .  S
C2925      H2931   1.086       .  S
C2925      C2926   1.364       .  D
C2926      C3087   1.443       .  S
C2927      H2932   1.086       .  S
C2927      C2928   1.363       .  D
C2928      C3092   1.438       .  S
N2933      H2965   1.037       .  S
N2933      C2938   1.353       .  A
N2934      C2942   1.352       .  A
N2935      H2966   1.037       .  S
N2935      C2940   1.352       .  A
N2936      C2944   1.351       .  A
C2937      C2945   1.387       .  A
C2937      C2953   1.414       .  A
C2938      C2954   1.414       .  A
C2938      C2946   1.387       .  A
C2939      C2947   1.387       .  A
C2939      C2956   1.414       .  A
C2940      C2955   1.413       .  A
C2940      C2948   1.387       .  A
C2941      C2953   1.414       .  A
C2941      C2949   1.387       .  A
C2942      C2956   1.413       .  A
C2942      C2950   1.387       .  A
C2943      C2951   1.387       .  A
C2943      C2954   1.413       .  A
C2944      C2952   1.387       .  A
C2944      C2955   1.412       .  A
C2945      H2957   1.082       .  S
C2946      H2958   1.082       .  S
C2947      H2959   1.082       .  S
C2948      H2960   1.082       .  S
C2949      H2961   1.082       .  S
C2950      H2962   1.082       .  S
C2951      H2963   1.082       .  S
C2952      H2964   1.082       .  S
C2953      C3103   1.451       .  S
C2954      C3097   1.450       .  S
C2955      C3091   1.448       .  S
C2956      C3085   1.452       .  S
N2967      H2999   1.038       .  S
N2967      C2972   1.351       .  A
N2968      C2976   1.350       .  A
N2969      H3000   1.038       .  S
N2969      C2974   1.353       .  A
N2970      C2978   1.350       .  A
C2971      C2979   1.387       .  A
C2971      C2987   1.409       .  A
C2972      C2988   1.409       .  A
C2972      C2980   1.388       .  A
C2973      C2981   1.387       .  A
C2973      C2990   1.413       .  A
C2974      C2989   1.413       .  A
C2974      C2982   1.387       .  A
C2975      C2987   1.411       .  A
C2975      C2983   1.386       .  A
C2976      C2990   1.412       .  A
C2976      C2984   1.388       .  A
C2977      C2985   1.387       .  A
C2977      C2988   1.410       .  A
C2978      C2986   1.388       .  A
C2978      C2989   1.411       .  A
C2979      H2991   1.082       .  S
C2980      H2992   1.082       .  S
C2981      H2993   1.082       .  S
C2982      H2994   1.082       .  S
C2983      H2995   1.082       .  S
C2984      H2996   1.082       .  S
C2985      H2997   1.082       .  S
C2986      H2998   1.082       .  S
C2987      C3115   1.446       .  S
C2988      C3096   1.445       .  S
C2989      C3090   1.449       .  S
C2990      C3107   1.449       .  S
N3001      H3033   1.038       .  S
N3001      C3006   1.354       .  A
N3002      C3009   1.350       .  A
N3003      H3034   1.038       .  S
N3003      C3008   1.355       .  A
N3004      C3011   1.353       .  A
C3005      C3013   1.387       .  A
C3005      C3021   1.416       .  A
C3006      C3022   1.416       .  A
C3006      C3014   1.389       .  A
C3007      C3015   1.387       .  A
C3007      C3024   1.416       .  A
C3008      C3023   1.417       .  A
C3008      C3016   1.389       .  A
C3009      C3021   1.409       .  A
C3009      C3017   1.387       .  A
C3010      C3024   1.409       .  A
C3010      C3018   1.387       .  A
C3011      C3019   1.387       .  A
C3011      C3022   1.415       .  A
C3012      C3020   1.387       .  A
C3012      C3023   1.415       .  A
C3013      H3025   1.082       .  S
C3014      H3026   1.082       .  S
C3015      H3027   1.082       .  S
C3016      H3028   1.082       .  S
C3017      H3029   1.082       .  S
C3018      H3030   1.083       .  S
C3019      H3031   1.082       .  S
C3020      H3032   1.082       .  S
C3021      C3084   1.452       .  S
C3022      C3088   1.453       .  S
C3023      C3110   1.454       .  S
C3024      C3122   1.451       .  S
C3035      C3036   1.543       .  S
C3035      C3041   1.534       .  S
C3035      C3039   1.534       .  S
C3035      C3142   1.468       .  S
C3036      H3043   1.086       .  S
C3036      C3037   1.367       .  D
C3037      C3038   1.531       .  S
C3037      C3086   1.442       .  S
C3038      C3042   1.535       .  S
C3038      C3040   1.537       .  S
C3038      H3044   1.112       .  S
C3039      H3045   1.087       .  S
C3039      C3040   1.362       .  D
C3040      C3083   1.443       .  S
C3041      H3046   1.087       .  S
C3041      C3042   1.363       .  D
C3042      C3081   1.439       .  S
N3047      H3079   1.038       .  S
N3047      C3052   1.351       .  A
N3048      C3056   1.351       .  A
N3049      H3080   1.036       .  S
N3049      C3054   1.355       .  A
N3050      C3058   1.351       .  A
C3051      C3059   1.387       .  A
C3051      C3067   1.408       .  A
C3052      C3068   1.409       .  A
C3052      C3060   1.388       .  A
C3053      C3061   1.387       .  A
C3053      C3070   1.418       .  A
C3054      C3069   1.419       .  A
C3054      C3062   1.387       .  A
C3055      C3067   1.412       .  A
C3055      C3063   1.386       .  A
C3056      C3070   1.415       .  A
C3056      C3064   1.389       .  A
C3057      C3065   1.386       .  A
C3057      C3068   1.411       .  A
C3058      C3066   1.389       .  A
C3058      C3069   1.415       .  A
C3059      H3071   1.082       .  S
C3060      H3072   1.082       .  S
C3061      H3073   1.082       .  S
C3062      H3074   1.082       .  S
C3063      H3075   1.083       .  S
C3064      H3076   1.082       .  S
C3065      H3077   1.083       .  S
C3066      H3078   1.082       .  S
C3067      C3118   1.449       .  S
C3068      C3082   1.447       .  S
C3069      C3102   1.454       .  S
C3070      C3124   1.454       .  S
C3081      C3082   1.205       .  T
C3083      C3084   1.207       .  T
C3085      C3086   1.207       .  T
C3087      C3088   1.207       .  T
C3089      C3090   1.206       .  T
C3091      C3092   1.204       .  T
C3093      C3094   1.211       .  T
C3095      C3096   1.203       .  T
C3097      C3098   1.206       .  T
C3099      C3100   1.212       .  T
C3101      C3102   1.208       .  T
C3103      C3104   1.206       .  T
C3105      C3106   1.204       .  T
C3107      C3108   1.205       .  T
C3109      C3110   1.208       .  T
C3111      C3112   1.210       .  T
C3113      C3114   1.205       .  T
C3115      C3116   1.204       .  T
C3117      C3118   1.205       .  T
C3119      C3120   1.207       .  T
C3121      C3122   1.206       .  T
C3123      C3124   1.208       .  T
C3125      C3126   1.212       .  T
C3127      C3128   1.207       .  T
C3129      C3130   1.214       .  T
C3131      C3132   1.206       .  T
C3133      C3134   1.209       .  T
C3135      C3136   1.214       .  T
C3137      C3138   1.207       .  T
C3139      C3140   1.209       .  T
C3141      C3142   1.206       .  T
C3143      C3144   1.208       .  T
