geometry optimzed in LAMMPS
_audit_creation_date              2020-12-01 
_audit_creation_method            'lammps2cif' 
_symmetry_space_group_name_H-M    'P1' 
_symmetry_Int_Tables_number       1 
_symmetry_cell_setting            triclinic 
loop_ 
_symmetry_equiv_pos_as_xyz 
  x,y,z 
_cell_length_a                    37.57422739 
_cell_length_b                    39.23607319579361 
_cell_length_c                    39.718249407821354 
_cell_angle_alpha                 90.39264175170302 
_cell_angle_beta                  89.91558387142676 
_cell_angle_gamma                 90.29294107141534 
loop_ 
_atom_site_label 
_atom_site_type_symbol 
_atom_site_fract_x 
_atom_site_fract_y 
_atom_site_fract_z 
_atom_site_charge 
C1          C  0.08492407  0.08478052  0.12078258     0.86600
C2          C  0.11240811  0.06477664  0.14140766    -0.53700
C3          C  0.13764402  0.08420029  0.15674619     0.09500
C4          C  0.12967191  0.12403910  0.15179224     0.20400
C5          C  0.06664439  0.10865694  0.14680391    -0.54400
C6          C  0.08823328  0.13068691  0.16287155     0.09600
C7          C  0.10677474  0.10773266  0.09698755    -0.53900
C8          C  0.13143470  0.12785336  0.11206836     0.10200
H9          H  0.11251894  0.03732132  0.14273179     0.14700
H10         H  0.14855456  0.14121111  0.16510041     0.00400
H11         H  0.03840976  0.10908620  0.15218933     0.15000
H12         H  0.10349136  0.10736676  0.06981371     0.14800
C13         C  0.07198282  0.16344074  0.18210061     0.30100
C14         C  0.07171390  0.22750168  0.21270133     0.30100
C15         C  0.09191310  0.19163732  0.16525573    -0.06100
C16         C  0.03270612  0.18127101  0.18480088    -0.06900
C17         C  0.08329992  0.16532698  0.21915236    -0.06800
C18         C  0.09297300  0.22320816  0.18070222    -0.06100
C19         C  0.03291545  0.21416571  0.20101770    -0.06900
C20         C  0.08352795  0.19755084  0.23433295    -0.06800
C21         C  0.09723206  0.24647869  0.15558866    -0.32200
N22         N  0.09931422  0.23013839  0.12590271     0.14300
C23         C  0.09288913  0.19720362  0.13138889    -0.32200
H24         H  0.08352135  0.17937378  0.11257737     0.16300
C25         C  0.49676649  0.22475152  0.20309610    -0.31100
N26         N  0.47397449  0.20108460  0.18859962     0.13100
C27         C  0.49586989  0.17485071  0.17732945    -0.31100
C28         C  0.07886301  0.19224062  0.26837029    -0.31400
N29         N  0.07873505  0.15846114  0.27529254     0.13600
H30         H  0.07369455  0.21196998  0.28682133     0.16200
C31         C  0.07768005  0.14239503  0.24501977    -0.31400
H32         H  0.07457372  0.11504805  0.24200040     0.16200
H33         H  0.48591534  0.15192526  0.16526475     0.16200
H34         H  0.09178210  0.27286767  0.15861189     0.16300
H35         H  0.48789897  0.24829701  0.21457251     0.16200
C36         C  0.08335651  0.31355594  0.26408570     0.86600
C37         C  0.10506842  0.33288590  0.23744265    -0.53700
C38         C  0.12841094  0.31376129  0.21961247     0.09500
C39         C  0.12569336  0.27434655  0.23051099     0.20400
C40         C  0.06345317  0.28413781  0.24578047    -0.54400
C41         C  0.08481360  0.26261727  0.22836848     0.09600
C42         C  0.11111420  0.29483239  0.28621605    -0.53900
C43         C  0.13432790  0.27483676  0.26936976     0.10200
H44         H  0.10366100  0.36032579  0.23479254     0.14700
H45         H  0.14277348  0.25701488  0.21562824     0.00400
H46         H  0.03566879  0.27809979  0.24913144     0.15000
H47         H  0.11193258  0.29680030  0.31350405     0.14800
C48         C  0.17137387  0.06792433  0.17404061     0.30100
C49         C  0.23256497  0.05113224  0.20938238     0.30100
C50         C  0.17479549  0.08199350  0.20866690    -0.06100
C51         C  0.17792436  0.02679545  0.18109786    -0.06900
C52         C  0.20721732  0.08067569  0.15911804    -0.06800
C53         C  0.20347078  0.07138608  0.22673163    -0.06100
C54         C  0.20964133  0.01943568  0.19949484    -0.06900
C55         C  0.23768392  0.06883313  0.17483252    -0.06800
C56         C  0.19742573  0.08030896  0.25908700    -0.32200
N57         N  0.16937874  0.10131560  0.25985868     0.14300
C58         C  0.15465091  0.10195391  0.22902216    -0.32200
H59         H  0.13061753  0.11316446  0.22239645     0.16300
C60         C  0.20900280  0.48375292  0.20621938    -0.31100
N61         N  0.17956912  0.46752592  0.19371824     0.13100
C62         C  0.16110226  0.99379278  0.17816887    -0.31100
C63         C  0.26623161  0.08625491  0.16106062    -0.31400
N64         N  0.25472054  0.11294691  0.14230493     0.13600
H65         H  0.29372957  0.07963385  0.16507401     0.16200
C66         C  0.21862871  0.11129411  0.14462485    -0.31400
H67         H  0.20195696  0.13286254  0.14082283     0.16200
H68         H  0.13577627  0.48686393  0.16380850     0.16200
H69         H  0.21146061  0.07016649  0.28044608     0.16300
H70         H  0.23041028  0.47104470  0.21921848     0.16200
C71         C  0.32281907  0.13618863  0.07399291     0.86600
C72         C  0.34236759  0.16198072  0.09638366    -0.53700
C73         C  0.32118163  0.18058129  0.11664184     0.09500
C74         C  0.27920947  0.17115813  0.11054761     0.20400
C75         C  0.29989331  0.11433961  0.09817622    -0.54400
C76         C  0.27665335  0.13177873  0.11764090     0.09600
C77         C  0.29512256  0.15549257  0.05294911    -0.53900
C78         C  0.27116713  0.17341809  0.07083971     0.10200
H79         H  0.37110507  0.16232265  0.09901583     0.14700
H80         H  0.26061595  0.18623595  0.12639125     0.00400
H81         H  0.30017916  0.08692558  0.09995778     0.15000
H82         H  0.29333319  0.15317490  0.02576190     0.14800
C83         C  0.12084877  0.10139191  0.34107515     0.86600
C84         C  0.08957073  0.12074275  0.32427636    -0.53700
C85         C  0.10059686  0.14481905  0.30171375     0.09500
C86         C  0.14093624  0.14700299  0.29808258     0.20400
C87         C  0.14349827  0.08798692  0.31236610    -0.54400
C88         C  0.15202753  0.11116887  0.28960692     0.09600
C89         C  0.14548817  0.12964010  0.35685577    -0.53900
C90         C  0.15650765  0.15357226  0.33376449     0.10200
H91         H  0.06179828  0.11372028  0.32737690     0.14700
H92         H  0.14978992  0.16453034  0.27791502     0.00400
H93         H  0.15175602  0.06159740  0.30936883     0.15000
H94         H  0.15680466  0.12853368  0.38180272     0.14800
C95         C  0.33645740  0.22569335  0.21388562     0.30100
C96         C  0.33726113  0.19784713  0.14955471     0.30100
C97         C  0.32408583  0.24869052  0.18509878    -0.06100
C98         C  0.37583548  0.21537533  0.20036573    -0.06900
C99         C  0.31650963  0.19307047  0.20811032    -0.06800
C100        C  0.32466325  0.23450390  0.15282216    -0.06100
C101        C  0.37632222  0.20065547  0.16711563    -0.06900
C102        C  0.31802830  0.17873086  0.17638848    -0.06800
C103        C  0.32940509  0.26117701  0.13088080    -0.32200
N104        N  0.32797696  0.29125778  0.14748117     0.14300
C105        C  0.32796939  0.28348518  0.18071924    -0.32200
H106        H  0.33231395  0.30188792  0.20070916     0.16300
C107        C  0.41294430  0.19324483  0.16033774    -0.31100
N108        N  0.43488511  0.20323858  0.18675016     0.13100
C109        C  0.41215664  0.21685783  0.21083230    -0.31100
C110        C  0.31858221  0.14417749  0.18062478    -0.31400
N111        N  0.31282358  0.13762031  0.21290826     0.13600
H112        H  0.32772238  0.12559946  0.16248053     0.16200
C113        C  0.31414810  0.16679848  0.23009287    -0.31400
H114        H  0.32149014  0.16845345  0.25585166     0.16200
H115        H  0.42113374  0.22722819  0.23466927     0.16200
H116        H  0.33646529  0.25902027  0.10463458     0.16300
H117        H  0.42273536  0.18198878  0.13720494     0.16200
C118        C  0.29493989  0.36690784  0.09673711     0.86600
C119        C  0.26440560  0.37517954  0.12111272    -0.53700
C120        C  0.24950703  0.34768390  0.13596262     0.09500
C121        C  0.26790910  0.31378147  0.12591669     0.20400
C122        C  0.32237883  0.34687103  0.11814592    -0.54400
C123        C  0.30771079  0.31885329  0.13342912     0.09600
C124        C  0.27979323  0.33939053  0.07217936    -0.53900
C125        C  0.26602462  0.31176720  0.08778672     0.10200
H126        H  0.25431407  0.40060810  0.12372003     0.14700
H127        H  0.25631358  0.29061305  0.13762083     0.00400
H128        H  0.35057150  0.35198997  0.11950993     0.15000
H129        H  0.28032704  0.34151122  0.04492479     0.14800
C130        C  0.32442313  0.05693381  0.25955119     0.86600
C131        C  0.29323264  0.03708910  0.24159185    -0.53700
C132        C  0.26563548  0.05822646  0.23233969     0.09500
C133        C  0.27238722  0.09647838  0.24328941     0.20400
C134        C  0.33413529  0.08485281  0.23435094    -0.54400
C135        C  0.30731892  0.10553718  0.22733548     0.09600
C136        C  0.30641370  0.07610678  0.29002947    -0.53900
C137        C  0.27975582  0.09775593  0.28124950     0.10200
H138        H  0.29350218  0.01026241  0.23511700     0.14700
H139        H  0.25198390  0.11528808  0.23568168     0.00400
H140        H  0.36092092  0.09005212  0.22519392     0.15000
H141        H  0.31644016  0.07511508  0.31562617     0.14800
C142        C  0.15852831  0.33105245  0.19731938     0.30100
C143        C  0.21648760  0.34774495  0.15824911     0.30100
C144        C  0.15547683  0.32244489  0.15964850    -0.06100
C145        C  0.16815113  0.37209968  0.19468164    -0.06900
C146        C  0.19488329  0.31456146  0.20634534    -0.06800
C147        C  0.18534213  0.33004014  0.14022387    -0.06100
C148        C  0.19830531  0.37905594  0.17414429    -0.06900
C149        C  0.22344484  0.32609273  0.18866898    -0.06800
C150        C  0.17419312  0.33193962  0.10728368    -0.32200
N151        N  0.13914616  0.32419527  0.10495032     0.14300
C152        C  0.12725440  0.32246633  0.13720354    -0.32200
H153        H  0.09938760  0.32331606  0.14381984     0.16300
C154        C  0.20367931  0.41397148  0.17198229    -0.31100
N155        N  0.17798104  0.43089989  0.18884767     0.13100
C156        C  0.15635747  0.40605015  0.20345376    -0.31100
C157        C  0.25335951  0.31161182  0.20140268    -0.31400
N158        N  0.24467384  0.28642308  0.22300282     0.13600
H159        H  0.27929551  0.32232781  0.19779630     0.16200
C160        C  0.20860308  0.28709350  0.22438748    -0.31400
H161        H  0.19385881  0.26693528  0.23500798     0.16200
H162        H  0.13377748  0.41191988  0.21931905     0.16200
H163        H  0.19022610  0.34087879  0.08658244     0.16300
H164        H  0.22525786  0.42702915  0.15972357     0.16200
C165        C  0.08316869  0.27146401  0.04255469     0.86600
C166        C  0.07468067  0.24909257  0.07301677    -0.53700
C167        C  0.10252705  0.24551147  0.09389590     0.09500
C168        C  0.13667853  0.26270855  0.08266727     0.20400
C169        C  0.09826530  0.30501995  0.05919735    -0.54400
C170        C  0.12649987  0.29998663  0.08005213     0.09600
C171        C  0.11571420  0.25421211  0.02503150    -0.53900
C172        C  0.14405152  0.24960389  0.04614869     0.10200
H173        H  0.04916413  0.23891716  0.07996908     0.14700
H174        H  0.15827403  0.25841519  0.10120046     0.00400
H175        H  0.08580984  0.32980142  0.05685017     0.15000
H176        H  0.11545170  0.24507642  0.99919013     0.14800
C177        C  0.31692667  0.28588305  0.28903593     0.86600
C178        C  0.34007733  0.26153319  0.26738438    -0.53700
C179        C  0.32154332  0.23848683  0.24922982     0.09500
C180        C  0.27986872  0.23891507  0.25972908     0.20400
C181        C  0.28795570  0.29898639  0.26556466    -0.54400
C182        C  0.26848267  0.27539916  0.24966603     0.09600
C183        C  0.29789131  0.26279152  0.31485567    -0.53900
C184        C  0.27670349  0.23844129  0.30071584     0.10200
H185        H  0.36853782  0.26403776  0.26374130     0.14700
H186        H  0.26337881  0.21914649  0.24704090     0.00400
H187        H  0.28386449  0.32596352  0.26061949     0.15000
H188        H  0.29924659  0.26652077  0.34185561     0.14800
C189        C  0.23832113  0.19092543  0.05347830     0.30100
C190        C  0.17765150  0.22800311  0.04045492     0.30100
C191        C  0.23750301  0.22742052  0.06650849    -0.06100
C192        C  0.22989851  0.19747202  0.01368987    -0.06900
C193        C  0.20248013  0.17577774  0.06626440    -0.06800
C194        C  0.20778852  0.24618814  0.05881671    -0.06100
C195        C  0.19807411  0.21629657  0.00781883    -0.06900
C196        C  0.17269869  0.19462894  0.05981030    -0.06800
C197        C  0.21763636  0.28000521  0.05976384    -0.32200
N198        N  0.25148732  0.28254211  0.07069793     0.14300
C199        C  0.26417754  0.25047110  0.07330289    -0.32200
H200        H  0.29143982  0.24393436  0.07717082     0.16300
C201        C  0.19754863  0.22188054  0.47289531    -0.31100
N202        N  0.22629753  0.20845488  0.45629625     0.13100
C203        C  0.24671257  0.19272304  0.48081166    -0.31100
C204        C  0.14386152  0.17788094  0.07397784    -0.31400
N205        N  0.15482879  0.15045704  0.09184726     0.13600
H206        H  0.11657972  0.18449782  0.06945872     0.16200
C207        C  0.19010467  0.14703585  0.08326653    -0.31400
H208        H  0.20544127  0.12419085  0.08616336     0.16200
H209        H  0.27090807  0.17893138  0.47535609     0.16200
H210        H  0.20169229  0.30095653  0.05121874     0.16300
H211        H  0.17617663  0.23529295  0.46057943     0.16200
C212        C  0.24756172  0.21775403  0.32177493     0.30100
C213        C  0.18946654  0.17668973  0.33577688     0.30100
C214        C  0.24948552  0.18025514  0.30980243    -0.06100
C215        C  0.23890496  0.21184849  0.36209959    -0.06900
C216        C  0.21048804  0.23019862  0.30952066    -0.06800
C217        C  0.22025615  0.16001136  0.31654915    -0.06100
C218        C  0.20859828  0.19043204  0.36775503    -0.06900
C219        C  0.18210866  0.20948072  0.31659042    -0.06800
C220        C  0.23123054  0.12643102  0.31369345    -0.32200
N221        N  0.26542771  0.12486167  0.30294736     0.14300
C222        C  0.27739289  0.15772077  0.30384427    -0.32200
H223        H  0.30513722  0.16462386  0.30468193     0.16300
C224        C  0.20285051  0.18685870  0.40212600    -0.31100
N225        N  0.22806887  0.20412830  0.41992159     0.13100
C226        C  0.24992390  0.21990956  0.39608933    -0.31100
C227        C  0.15171793  0.22478896  0.30439200    -0.31400
N228        N  0.16014858  0.25356603  0.28762667     0.13600
H229        H  0.12524388  0.21599325  0.30906878     0.16200
C230        C  0.19567164  0.25889604  0.29420366    -0.31400
H231        H  0.20986252  0.28222054  0.28890640     0.16200
H232        H  0.27184042  0.23666451  0.40259567     0.16200
H233        H  0.21602237  0.10467124  0.32188263     0.16300
H234        H  0.18105265  0.17308076  0.41358854     0.16200
N235        N  0.48090262  0.00743809  0.47951298    -0.06000
N236        N  0.48034353  0.02996950  0.50422332    -0.58200
N237        N  0.02793373  0.46697459  0.42442257    -0.05700
N238        N  0.06254958  0.46371057  0.41957812    -0.60300
N239        N  0.51576899  0.99312680  0.41252871    -0.05300
N240        N  0.54075473  0.01159711  0.39890283    -0.58100
N241        N  0.98865092  0.48143415  0.48962415    -0.05000
N242        N  0.99310475  0.48370576  0.52235891    -0.60600
C243        C  0.99112508  0.01262737  0.03085366     0.96100
C244        C  0.07017764  0.99284845  0.40316128     0.95900
N245        N  0.46807483  0.38141361  0.40778645    -0.06200
N246        N  0.47495804  0.36496611  0.37957710    -0.58700
N247        N  0.96354465  0.40531274  0.49030902    -0.04400
N248        N  0.98301669  0.38803751  0.51153956    -0.60000
N249        N  0.43890459  0.38547114  0.47717985    -0.06300
N250        N  0.44421595  0.35379302  0.48714461    -0.59000
N251        N  0.99707407  0.39597412  0.41954257    -0.04000
N252        N  0.02410606  0.39013270  0.39926529    -0.60100
Mn253      Mn  0.99467390  0.43708375  0.45685174     1.18400
C254        C  0.01012039  0.37050796  0.37471534     0.98200
C255        C  0.97183901  0.35404967  0.00720798     0.98900
N256        N  0.44592807  0.01263028  0.37436359    -0.06300
N257        N  0.46124720  0.02071335  0.34538429    -0.62600
N258        N  0.38579192  0.52353708  0.43326232    -0.05100
N259        N  0.36009765  0.54190433  0.44657124    -0.63300
N260        N  0.41586143  0.03345992  0.44214292    -0.05800
N261        N  0.41209702  0.06150940  0.45961582    -0.62900
N262        N  0.41656824  0.50198140  0.36521960    -0.04700
N263        N  0.41033558  0.99302476  0.33650309    -0.63500
Mn264      Mn  0.46527128  0.01297527  0.42662556     1.10700
C265        C  0.43830174  0.00816571  0.32174441     0.99400
C266        C  0.37589248  0.06339719  0.96404770     0.99500
N267        N  0.36701360  0.41809376  0.44864259    -0.05800
N268        N  0.34981447  0.40688278  0.47511551    -0.61200
N269        N  0.38222891  0.43538805  0.36959242    -0.05100
N270        N  0.37215055  0.43552577  0.33793480    -0.61100
N271        N  0.39738719  0.40668201  0.37727920    -0.06400
N272        N  0.39852016  0.38672243  0.35070397    -0.60700
N273        N  0.35575000  0.44882913  0.44092929    -0.05400
N274        N  0.33127568  0.45923522  0.46247775    -0.57900
Mn275      Mn  0.41666313  0.39663164  0.42757448     1.20200
Mn276      Mn  0.38326171  0.47807927  0.40247478     1.10100
Cl277      Cl  0.43995946  0.45709063  0.42809366    -0.85900
C278        C  0.32829487  0.43094568  0.98317760     0.96400
C279        C  0.38187556  0.40466894  0.32640988     0.96200
C280        C  0.36130039  0.33123477  0.27918158    -0.12200
C281        C  0.33472515  0.31801965  0.30065200     0.04800
C282        C  0.31590722  0.34130481  0.32158106    -0.07500
C283        C  0.32679977  0.37517867  0.32308088    -0.08200
C284        C  0.35757779  0.38552191  0.30596359    -0.02800
C285        C  0.37240993  0.36454715  0.28144823     0.04000
N286        N  0.40148225  0.37535553  0.26097477     0.66500
H287        H  0.37305340  0.31674136  0.25894811     0.15400
H288        H  0.31445664  0.39197262  0.34144588     0.15200
N289        N  0.28542330  0.33119495  0.34080579     0.74200
O290        O  0.43250954  0.36818085  0.27047480    -0.39200
O291        O  0.39598450  0.37992732  0.22999299    -0.39100
O292        O  0.28906093  0.32301961  0.37126563    -0.39900
O293        O  0.25518622  0.32892051  0.32712499    -0.39900
C294        C  0.05821649  0.30553805  0.99725542    -0.12200
C295        C  0.05162068  0.27919144  0.01968758     0.04800
C296        C  0.01526491  0.27094416  0.02669975    -0.07500
C297        C  0.98886960  0.29495571  0.01988286    -0.08200
C298        C  0.99801370  0.32628618  0.00605594    -0.02800
C299        C  0.03275295  0.33050916  0.99233334     0.04000
N300        N  0.04438718  0.36076415  0.97580297     0.66500
H301        H  0.08533247  0.31083188  0.98933267     0.15400
H302        H  0.96151004  0.28973822  0.02696285     0.15200
N303        N  0.00375970  0.23794916  0.03734822     0.74200
O304        O  0.05668389  0.38473228  0.99375076    -0.39200
O305        O  0.05633475  0.35747337  0.94629466    -0.39100
O306        O  0.98745675  0.23551743  0.06506617    -0.39900
O307        O  0.99742595  0.21586468  0.01486681    -0.39900
C308        C  0.38347644  0.06605567  0.28525862    -0.12200
C309        C  0.36044795  0.04218201  0.26944737     0.04800
C310        C  0.37540091  0.01077389  0.25886989    -0.07500
C311        C  0.41072121  0.00321374  0.26786759    -0.08200
C312        C  0.42974365  0.02473865  0.29010856    -0.02800
C313        C  0.41815928  0.05833292  0.29380067     0.04000
N314        N  0.43839721  0.08322326  0.31201214     0.66500
H315        H  0.37445310  0.09167565  0.29093773     0.15400
H316        H  0.42024770  0.97751993  0.26343027     0.15200
N317        N  0.35556082  0.98553679  0.24080976     0.74200
O318        O  0.45560132  0.10516778  0.29548072    -0.39200
O319        O  0.42973599  0.09006851  0.34201959    -0.39100
O320        O  0.36244562  0.98091311  0.21001381    -0.39900
O321        O  0.34832674  0.46231770  0.24901426    -0.39900
C322        C  0.27633068  0.41191345  0.05757699    -0.12200
C323        C  0.30463236  0.39851464  0.07669034     0.04800
C324        C  0.33919395  0.41190777  0.07106147    -0.07500
C325        C  0.34532538  0.43073869  0.04191815    -0.08200
C326        C  0.31809256  0.43492347  0.01828318    -0.02800
C327        C  0.28281000  0.42932412  0.02795815     0.04000
N328        N  0.25286581  0.43614514  0.50626838     0.66500
H329        H  0.24910342  0.40409326  0.06251264     0.15400
H330        H  0.37248654  0.43744825  0.03531930     0.15200
N331        N  0.36864326  0.40592007  0.09279895     0.74200
O332        O  0.24153511  0.41223695  0.48770136    -0.39200
O333        O  0.23201393  0.46012373  0.51384508    -0.39100
O334        O  0.39253164  0.38561746  0.08300014    -0.39900
O335        O  0.37701009  0.42905564  0.11360131    -0.39900
C336        C  0.09798669  0.00839043  0.35408026    -0.12200
C337        C  0.10327967  0.00432220  0.38845512     0.04800
C338        C  0.12065860  0.03067926  0.40631791    -0.07500
C339        C  0.12421698  0.06294602  0.39197093    -0.08200
C340        C  0.11050060  0.06930971  0.35985847    -0.02800
C341        C  0.09540181  0.04124996  0.34144515     0.04000
N342        N  0.07774235  0.04541544  0.30977324     0.66500
H343        H  0.08568940  0.98781550  0.33974802     0.15400
H344        H  0.13721179  0.08272398  0.40649088     0.15200
N345        N  0.13165756  0.02611349  0.44031198     0.74200
O346        O  0.09357551  0.03654406  0.28308918    -0.39200
O347        O  0.04416663  0.04630282  0.30964628    -0.39100
O348        O  0.16439180  0.02226878  0.44612960    -0.39900
O349        O  0.11176429  0.03674227  0.46370539    -0.39900
C350        C  0.34814006  0.08164141  0.05175226    -0.12200
C351        C  0.34760215  0.11718296  0.05134576     0.04800
C352        C  0.36426272  0.13443058  0.02456194    -0.07500
C353        C  0.37145139  0.11652776  0.99508759    -0.08200
C354        C  0.36388123  0.08155949  0.99327291    -0.02800
C355        C  0.35430484  0.06371885  0.02248710     0.04000
N356        N  0.35129375  0.02747540  0.02348586     0.66500
H357        H  0.34242763  0.06709491  0.07401730     0.15400
H358        H  0.38340796  0.12963487  0.97391507     0.15200
N359        N  0.37554864  0.16918269  0.02796115     0.74200
O360        O  0.37665847  0.01089306  0.03603466    -0.39200
O361        O  0.31784172  0.01522357  0.52345308    -0.39100
O362        O  0.40481513  0.17563202  0.04226295    -0.39900
O363        O  0.35417563  0.19317050  0.02233379    -0.39900
C364        C  0.00796792  0.35018413  0.31613646    -0.12200
C365        C  0.02822815  0.36342347  0.34282236     0.04800
C366        C  0.06491690  0.36970056  0.33782662    -0.07500
C367        C  0.08103975  0.35767459  0.30873878    -0.08200
C368        C  0.06184905  0.33780818  0.28550056    -0.02800
C369        C  0.02438218  0.33833214  0.28694220     0.04000
N370        N  0.00285292  0.33202167  0.25793816     0.66500
H371        H  0.97922130  0.34899302  0.31783586     0.15400
H372        H  0.10964998  0.36053727  0.30620980     0.15200
N373        N  0.08686719  0.38653229  0.36218897     0.74200
O374        O  0.97965255  0.30866752  0.25889993    -0.39200
O375        O  0.99904499  0.35588248  0.23710966    -0.39100
O376        O  0.10684864  0.36866116  0.38040643    -0.39900
O377        O  0.09546371  0.41717308  0.35701154    -0.39900
C378        C  0.04763943  0.01748461  0.06048284    -0.12200
C379        C  0.01272903  0.02903963  0.05652937     0.04800
C380        C  0.00142732  0.05837278  0.07352788    -0.07500
C381        C  0.02480113  0.07511180  0.09490112    -0.08200
C382        C  0.05966933  0.06318055  0.10018507    -0.02800
C383        C  0.07159405  0.03492147  0.08084295     0.04000
N384        N  0.10833278  0.02578705  0.07812542     0.66500
H385        H  0.05742935  0.99624106  0.04558437     0.15400
H386        H  0.01563779  0.09903566  0.10512309     0.15200
N387        N  0.46696738  0.07262478  0.06846281     0.74200
O388        O  0.11858494  0.99867222  0.09191234    -0.39200
O389        O  0.12589553  0.03698181  0.05339731    -0.39100
O390        O  0.44410841  0.06969351  0.09158216    -0.39900
O391        O  0.46395718  0.09681468  0.04789938    -0.39900
C392        C  0.08496119  0.08454514  0.62067397     0.86600
C393        C  0.11230402  0.06489551  0.64173548    -0.53700
C394        C  0.13761658  0.08448550  0.65667924     0.09500
C395        C  0.12972444  0.12429355  0.65109653     0.20400
C396        C  0.06669533  0.10891780  0.64621718    -0.54400
C397        C  0.08828837  0.13126858  0.66180808     0.09600
C398        C  0.10698696  0.10703833  0.59650563    -0.53900
C399        C  0.13160080  0.12748415  0.61136307     0.10200
H400        H  0.11218804  0.03751446  0.64381809     0.14700
H401        H  0.14853547  0.14166716  0.66423340     0.00400
H402        H  0.03843482  0.10946339  0.65152009     0.15000
H403        H  0.10381497  0.10614280  0.56933151     0.14800
C404        C  0.07211033  0.16432018  0.68043808     0.30100
C405        C  0.07197440  0.22854818  0.71035074     0.30100
C406        C  0.09115677  0.19255142  0.66256015    -0.06100
C407        C  0.03268465  0.18173745  0.68393862    -0.06900
C408        C  0.08424343  0.16664899  0.71715351    -0.06800
C409        C  0.09197803  0.22442828  0.67759252    -0.06100
C410        C  0.03298332  0.21477324  0.69988525    -0.06900
C411        C  0.08468943  0.19900388  0.73193534    -0.06800
C412        C  0.09370067  0.24741327  0.65189692    -0.32200
N413        N  0.09493961  0.23075353  0.62231509     0.14300
C414        C  0.09071873  0.19759339  0.62848383    -0.32200
H415        H  0.08227963  0.17892059  0.61007314     0.16300
C416        C  0.49685558  0.22528796  0.70231195    -0.31100
N417        N  0.47396989  0.20140566  0.68834207     0.13100
C418        C  0.49578364  0.17516131  0.67695340    -0.31100
C419        C  0.07993826  0.19416097  0.76603652    -0.31400
N420        N  0.07920717  0.16051918  0.77338123     0.13600
H421        H  0.07451889  0.21414284  0.78413973     0.16200
C422        C  0.07813397  0.14414870  0.74332287    -0.31400
H423        H  0.07424103  0.11677037  0.74062278     0.16200
H424        H  0.48574443  0.15218627  0.66504482     0.16200
H425        H  0.08698936  0.27361424  0.65465717     0.16300
H426        H  0.48807243  0.24898989  0.71352035     0.16200
C427        C  0.08376890  0.31399279  0.76233536     0.86600
C428        C  0.10587507  0.33341357  0.73612226    -0.53700
C429        C  0.12930920  0.31428949  0.71846352     0.09500
C430        C  0.12626471  0.27481996  0.72885798     0.20400
C431        C  0.06389146  0.28494988  0.74351533    -0.54400
C432        C  0.08528546  0.26349742  0.72608707     0.09600
C433        C  0.11111236  0.29489531  0.78459590    -0.53900
C434        C  0.13447708  0.27499014  0.76785263     0.10200
H435        H  0.10465023  0.36087823  0.73365871     0.14700
H436        H  0.14344925  0.25755500  0.71396307     0.00400
H437        H  0.03607585  0.27897144  0.74659955     0.15000
H438        H  0.11165653  0.29669280  0.81190202     0.14800
C439        C  0.17124180  0.06823520  0.67417955     0.30100
C440        C  0.23216288  0.05144031  0.70999103     0.30100
C441        C  0.17430991  0.08205484  0.70890273    -0.06100
C442        C  0.17792287  0.02707106  0.68110297    -0.06900
C443        C  0.20716817  0.08118207  0.65967011    -0.06800
C444        C  0.20277486  0.07141208  0.72722992    -0.06100
C445        C  0.20951510  0.01975351  0.69972504    -0.06900
C446        C  0.23748392  0.06935947  0.67561955    -0.06800
C447        C  0.19645228  0.08038422  0.75953702    -0.32200
N448        N  0.16853179  0.10146586  0.75995664     0.14300
C449        C  0.15397783  0.10216646  0.72895377    -0.32200
H450        H  0.13111539  0.11316221  0.72218241     0.16300
C451        C  0.20923705  0.48403911  0.70526996    -0.31100
N452        N  0.17982153  0.46797969  0.69254477     0.13100
C453        C  0.16121275  0.99402902  0.67808857    -0.31100
C454        C  0.26610141  0.08674973  0.66207250    -0.31400
N455        N  0.25474795  0.11340636  0.64319650     0.13600
H456        H  0.29355020  0.08001153  0.66617011     0.16200
C457        C  0.21864846  0.11175957  0.64515520    -0.31400
H458        H  0.20200367  0.13323310  0.64082322     0.16200
H459        H  0.13621671  0.48758572  0.66260682     0.16200
H460        H  0.21043380  0.07039336  0.78107088     0.16300
H461        H  0.23060492  0.47117634  0.71817687     0.16200
C462        C  0.32338663  0.13549505  0.57517501     0.86600
C463        C  0.34280858  0.16150201  0.59740792    -0.53700
C464        C  0.32151218  0.18052345  0.61715848     0.09500
C465        C  0.27959696  0.17109897  0.61092794     0.20400
C466        C  0.30021658  0.11407854  0.59946168    -0.54400
C467        C  0.27686375  0.13184926  0.61846368     0.09600
C468        C  0.29595250  0.15463321  0.55366577    -0.53900
C469        C  0.27190856  0.17283982  0.57118561     0.10200
H470        H  0.37149544  0.16164120  0.60043022     0.14700
H471        H  0.26092069  0.18642292  0.62644935     0.00400
H472        H  0.30049114  0.08672891  0.60180305     0.15000
H473        H  0.29439855  0.15199529  0.52648845     0.14800
C474        C  0.11870530  0.10335914  0.84042570     0.86600
C475        C  0.08825415  0.12331296  0.82299069    -0.53700
C476        C  0.10028440  0.14680821  0.80032260     0.09500
C477        C  0.14071710  0.14804266  0.79736343     0.20400
C478        C  0.14158919  0.08917121  0.81218221    -0.54400
C479        C  0.15111704  0.11196895  0.78942078     0.09600
C480        C  0.14370458  0.13117821  0.85642265    -0.53900
C481        C  0.15574603  0.15460111  0.83325930     0.10200
H482        H  0.06024807  0.11707527  0.82578432     0.14700
H483        H  0.15037288  0.16514022  0.77715114     0.00400
H484        H  0.14907826  0.06255110  0.80936916     0.15000
H485        H  0.15423081  0.13022418  0.88168931     0.14800
C486        C  0.33642604  0.22591622  0.71420755     0.30100
C487        C  0.33736506  0.19798680  0.64999274     0.30100
C488        C  0.32427125  0.24899522  0.68538858    -0.06100
C489        C  0.37584112  0.21541092  0.70077434    -0.06900
C490        C  0.31614812  0.19351504  0.70837408    -0.06800
C491        C  0.32499560  0.23477438  0.65309755    -0.06100
C492        C  0.37630516  0.20066294  0.66755764    -0.06900
C493        C  0.31796637  0.17901631  0.67679317    -0.06800
C494        C  0.33049703  0.26141820  0.63123704    -0.32200
N495        N  0.32921576  0.29154421  0.64778426     0.14300
C496        C  0.32860388  0.28375218  0.68102124    -0.32200
H497        H  0.33312393  0.30207605  0.70104480     0.16300
C498        C  0.41285304  0.19339563  0.66053940    -0.31100
N499        N  0.43488128  0.20347890  0.68680373     0.13100
C500        C  0.41225378  0.21707010  0.71101053    -0.31100
C501        C  0.31830934  0.14449636  0.68129831    -0.31400
N502        N  0.31153025  0.13817234  0.71348964     0.13600
H503        H  0.32782892  0.12577034  0.66350320     0.16200
C504        C  0.31281302  0.16744320  0.73042113    -0.31400
H505        H  0.31944792  0.16928080  0.75677705     0.16200
H506        H  0.42137175  0.22760472  0.73473028     0.16200
H507        H  0.33770652  0.25917996  0.60501449     0.16300
H508        H  0.42255709  0.18225826  0.63731901     0.16200
C509        C  0.29577531  0.36657802  0.59633077     0.86600
C510        C  0.26557150  0.37516488  0.62090667    -0.53700
C511        C  0.25084474  0.34788728  0.63614869     0.09500
C512        C  0.26910039  0.31384568  0.62644751     0.20400
C513        C  0.32349005  0.34683060  0.61770882    -0.54400
C514        C  0.30894098  0.31903629  0.63356495     0.09600
C515        C  0.28040514  0.33870958  0.57225785    -0.53900
C516        C  0.26683061  0.31125803  0.58833611     0.10200
H517        H  0.25546391  0.40061385  0.62333740     0.14700
H518        H  0.25759663  0.29089142  0.63863578     0.00400
H519        H  0.35172562  0.35194364  0.61855248     0.15000
H520        H  0.28064802  0.34049059  0.54497523     0.14800
C521        C  0.32394542  0.05750140  0.76007334     0.86600
C522        C  0.29281225  0.03755962  0.74215943    -0.53700
C523        C  0.26502129  0.05856448  0.73316982     0.09500
C524        C  0.27155601  0.09681358  0.74425056     0.20400
C525        C  0.33332032  0.08556739  0.73491914    -0.54400
C526        C  0.30635361  0.10615387  0.72817301     0.09600
C527        C  0.30600271  0.07647295  0.79071773    -0.53900
C528        C  0.27911667  0.09797757  0.78215527     0.10200
H529        H  0.29329861  0.01081014  0.73539318     0.14700
H530        H  0.25100349  0.11553964  0.73680834     0.00400
H531        H  0.35999224  0.09088570  0.72552782     0.15000
H532        H  0.31624993  0.07550874  0.81623657     0.14800
C533        C  0.15958074  0.33152765  0.69659781     0.30100
C534        C  0.21775726  0.34820098  0.65813278     0.30100
C535        C  0.15730655  0.32183944  0.65925154    -0.06100
C536        C  0.16851779  0.37263645  0.69325921    -0.06900
C537        C  0.19599594  0.31590306  0.70666119    -0.06800
C538        C  0.18727714  0.32947343  0.64007775    -0.06100
C539        C  0.19877321  0.37961536  0.67290208    -0.06900
C540        C  0.22471782  0.32762070  0.68930897    -0.06800
C541        C  0.17648206  0.33069391  0.60698618    -0.32200
N542        N  0.14154879  0.32264686  0.60448292     0.14300
C543        C  0.12935722  0.32104587  0.63660505    -0.32200
H544        H  0.10153978  0.32296488  0.64301512     0.16300
C545        C  0.20398307  0.41454016  0.67059274    -0.31100
N546        N  0.17816377  0.43141635  0.68736141     0.13100
C547        C  0.15661198  0.40653916  0.70198244    -0.31100
C548        C  0.25459257  0.31333744  0.70239892    -0.31400
N549        N  0.24569250  0.28798815  0.72374493     0.13600
H550        H  0.28065821  0.32379970  0.69873288     0.16200
C551        C  0.20958070  0.28825062  0.72446812    -0.31400
H552        H  0.19472627  0.26757016  0.73406111     0.16200
H553        H  0.13416278  0.41237258  0.71802530     0.16200
H554        H  0.19248640  0.33992877  0.58639790     0.16300
H555        H  0.22569407  0.42761710  0.65854467     0.16200
C556        C  0.08627713  0.27386404  0.53840128     0.86600
C557        C  0.07456102  0.25133825  0.56802899    -0.53700
C558        C  0.10089297  0.24558619  0.59025720     0.09500
C559        C  0.13654390  0.26138249  0.58120143     0.20400
C560        C  0.10205833  0.30619454  0.55680539    -0.54400
C561        C  0.12857858  0.29924151  0.57898504     0.09600
C562        C  0.11880342  0.25557878  0.52223170    -0.53900
C563        C  0.14529480  0.24887452  0.54478354     0.10200
H564        H  0.04770064  0.24357479  0.57369064     0.14700
H565        H  0.15695767  0.25563427  0.60053216     0.00400
H566        H  0.09128594  0.33169582  0.55452013     0.15000
H567        H  0.11991472  0.24761248  0.49604835     0.14800
C568        C  0.31792586  0.28543693  0.78995467     0.86600
C569        C  0.34058224  0.26086351  0.76815035    -0.53700
C570        C  0.32157331  0.23860898  0.74958002     0.09500
C571        C  0.27990146  0.23958586  0.76006190     0.20400
C572        C  0.28923234  0.29938745  0.76652029    -0.54400
C573        C  0.26928260  0.27633844  0.75034161     0.09600
C574        C  0.29834755  0.26246354  0.81549023    -0.53900
C575        C  0.27663139  0.23874529  0.80105836     0.10200
H576        H  0.36913085  0.26261429  0.76476152     0.14700
H577        H  0.26306150  0.22025297  0.74713420     0.00400
H578        H  0.28572406  0.32648708  0.76182753     0.15000
H579        H  0.29981626  0.26576950  0.84253368     0.14800
C580        C  0.23924520  0.19023379  0.55355380     0.30100
C581        C  0.17889266  0.22731815  0.53985958     0.30100
C582        C  0.23822993  0.22671372  0.56671650    -0.06100
C583        C  0.23132815  0.19678356  0.51366097    -0.06900
C584        C  0.20323500  0.17501835  0.56592889    -0.06800
C585        C  0.20869126  0.24551761  0.55864428    -0.06100
C586        C  0.19963048  0.21563405  0.50749795    -0.06900
C587        C  0.17356707  0.19392135  0.55913893    -0.06800
C588        C  0.21858742  0.27931844  0.55985506    -0.32200
N589        N  0.25212084  0.28178620  0.57170531     0.14300
C590        C  0.26470467  0.24968680  0.57446606    -0.32200
H591        H  0.29179537  0.24307431  0.57912335     0.16300
C592        C  0.19583561  0.22266517  0.97320954    -0.31100
N593        N  0.22460571  0.20942067  0.95643077     0.13100
C594        C  0.24519227  0.19368110  0.98078862    -0.31100
C595        C  0.14451177  0.17730100  0.57308811    -0.31400
N596        N  0.15518090  0.14979261  0.59099393     0.13600
H597        H  0.11733259  0.18409303  0.56839788     0.16200
C598        C  0.19058131  0.14631698  0.58287771    -0.31400
H599        H  0.20589413  0.12352114  0.58625620     0.16200
H600        H  0.26949114  0.18011801  0.97518647     0.16200
H601        H  0.20298478  0.30025423  0.55072896     0.16300
H602        H  0.17439007  0.23612584  0.96105232     0.16200
C603        C  0.24720010  0.21824661  0.82194605     0.30100
C604        C  0.18880163  0.17750555  0.83563143     0.30100
C605        C  0.24920109  0.18061043  0.81037004    -0.06100
C606        C  0.23800275  0.21271075  0.86224681    -0.06900
C607        C  0.21031884  0.23065832  0.80910568    -0.06800
C608        C  0.21977784  0.16055546  0.81690294    -0.06100
C609        C  0.20751521  0.19147596  0.86772054    -0.06900
C610        C  0.18182432  0.21011767  0.81609877    -0.06800
C611        C  0.23050870  0.12689826  0.81419444    -0.32200
N612        N  0.26486268  0.12506646  0.80391442     0.14300
C613        C  0.27703919  0.15785410  0.80488839    -0.32200
H614        H  0.30496546  0.16460130  0.80571207     0.16300
C615        C  0.20131454  0.18813803  0.90204882    -0.31100
N616        N  0.22643278  0.20534878  0.92001753     0.13100
C617        C  0.24870965  0.22083169  0.89632883    -0.31100
C618        C  0.15159963  0.22534372  0.80349408    -0.31400
N619        N  0.16023497  0.25379540  0.78631370     0.13600
H620        H  0.12507394  0.21678181  0.80833758     0.16200
C621        C  0.19567663  0.25919190  0.79332521    -0.31400
H622        H  0.20987417  0.28257248  0.78832601     0.16200
H623        H  0.27076957  0.23735091  0.90298639     0.16200
H624        H  0.21496617  0.10526012  0.82214966     0.16300
H625        H  0.17938039  0.17442528  0.91335316     0.16200
N626        N  0.48022882  0.00782467  0.97916085    -0.06000
N627        N  0.47998894  0.03044316  0.00379493    -0.58200
N628        N  0.02853616  0.46703988  0.92353917    -0.05700
N629        N  0.06331941  0.46435675  0.91954175    -0.60300
N630        N  0.51471981  0.99382501  0.91195552    -0.05300
N631        N  0.53899650  0.01205872  0.89705244    -0.58100
N632        N  0.98922873  0.48067742  0.98874686    -0.05000
N633        N  0.99409728  0.48296196  0.02142095    -0.60600
C634        C  0.99086514  0.01193360  0.53148408     0.96100
C635        C  0.06854126  0.99334986  0.90035062     0.95900
N636        N  0.46894576  0.38118316  0.90645195    -0.06200
N637        N  0.47571856  0.36513067  0.87798927    -0.58700
N638        N  0.96513161  0.40377752  0.98872058    -0.04400
N639        N  0.98416317  0.38603934  0.00994816    -0.60000
N640        N  0.43946944  0.38469837  0.97613043    -0.06300
N641        N  0.44291312  0.35312262  0.98703795    -0.59000
N642        N  0.99783919  0.39627468  0.91783219    -0.04000
N643        N  0.02456322  0.39141611  0.89697531    -0.60100
Mn644      Mn  0.99553709  0.43657525  0.95562612     1.18400
C645        C  0.01065836  0.37148080  0.87266923     0.98200
C646        C  0.97298607  0.35550488  0.50740229     0.98900
N647        N  0.44527900  0.01327830  0.87405531    -0.06300
N648        N  0.46072571  0.02166145  0.84523149    -0.62600
N649        N  0.38562400  0.52193718  0.93320630    -0.05100
N650        N  0.35988126  0.53940258  0.94758592    -0.63300
N651        N  0.41498378  0.03375512  0.94169250    -0.05800
N652        N  0.41102989  0.06215927  0.95853950    -0.62900
N653        N  0.41640870  0.50093373  0.86480424    -0.04700
N654        N  0.41012265  0.99357954  0.83588828    -0.63500
Mn655      Mn  0.46443779  0.01344985  0.92631892     1.10700
C656        C  0.43805234  0.00908754  0.82139189     0.99400
C657        C  0.37703559  0.06251944  0.46564091     0.99500
N658        N  0.36761414  0.41673669  0.94806384    -0.05800
N659        N  0.35076548  0.40545570  0.97471903    -0.61200
N660        N  0.38243694  0.43446394  0.86906031    -0.05100
N661        N  0.37263558  0.43484430  0.83734408    -0.61100
N662        N  0.39805312  0.40594215  0.87651135    -0.06400
N663        N  0.39983760  0.38636997  0.84970672    -0.60700
N664        N  0.35603601  0.44737243  0.94042421    -0.05400
N665        N  0.33163614  0.45762023  0.96211735    -0.57900
Mn666      Mn  0.41738320  0.39579382  0.92666248     1.20200
Mn667      Mn  0.38329041  0.47688364  0.90209922     1.10100
Cl668      Cl  0.44036101  0.45629270  0.92738322    -0.85900
C669        C  0.32753189  0.43254696  0.48347596     0.96400
C670        C  0.38291220  0.40427392  0.82555371     0.96200
C671        C  0.36317809  0.32989635  0.78028701    -0.12200
C672        C  0.33645635  0.31705903  0.80184891     0.04800
C673        C  0.31780392  0.34060996  0.82259607    -0.07500
C674        C  0.32807357  0.37466137  0.82290414    -0.08200
C675        C  0.35864773  0.38488232  0.80538582    -0.02800
C676        C  0.37374276  0.36339733  0.78149417     0.04000
N677        N  0.40288122  0.37388552  0.76094440     0.66500
H678        H  0.37534733  0.31500921  0.76057956     0.15400
H679        H  0.31565047  0.39177270  0.84093318     0.15200
N680        N  0.28802004  0.33057336  0.84278548     0.74200
O681        O  0.43390664  0.36783270  0.77117022    -0.39200
O682        O  0.39778171  0.37704460  0.72972291    -0.39100
O683        O  0.29281485  0.32212134  0.87302543    -0.39900
O684        O  0.25734335  0.32816494  0.83003127    -0.39900
C685        C  0.06288790  0.31282749  0.49575047    -0.12200
C686        C  0.05652460  0.28321251  0.51395976     0.04800
C687        C  0.02047399  0.27228922  0.51726768    -0.07500
C688        C  0.99311109  0.29588341  0.51264838    -0.08200
C689        C  0.00123727  0.32958712  0.50465161    -0.02800
C690        C  0.03655162  0.33750314  0.49385349     0.04000
N691        N  0.04789389  0.37106010  0.48480039     0.66500
H692        H  0.09010338  0.32030268  0.49018939     0.15400
H693        H  0.96571083  0.28824057  0.51687716     0.15200
N694        N  0.01081712  0.23728924  0.52163923     0.74200
O695        O  0.05785412  0.39094367  0.50809961    -0.39200
O696        O  0.06120191  0.37518539  0.45595160    -0.39100
O697        O  0.99214811  0.22920720  0.54683842    -0.39900
O698        O  0.00901239  0.21865359  0.49566776    -0.39900
C699        C  0.38317820  0.06692626  0.78525993    -0.12200
C700        C  0.36013022  0.04291651  0.76968125     0.04800
C701        C  0.37512003  0.01152769  0.75907794    -0.07500
C702        C  0.41067613  0.00430055  0.76750213    -0.08200
C703        C  0.42965391  0.02580449  0.78978636    -0.02800
C704        C  0.41795157  0.05935859  0.79358802     0.04000
N705        N  0.43810704  0.08430020  0.81181958     0.66500
H706        H  0.37405297  0.09249644  0.79101874     0.15400
H707        H  0.42030224  0.97864788  0.76301552     0.15200
N708        N  0.35494603  0.98572548  0.74216200     0.74200
O709        O  0.45476840  0.10663308  0.79530163    -0.39200
O710        O  0.42963068  0.09081776  0.84194444    -0.39100
O711        O  0.36161227  0.97970602  0.71155168    -0.39900
O712        O  0.34812163  0.46071916  0.74614828    -0.39900
C713        C  0.27626243  0.41105668  0.55701937    -0.12200
C714        C  0.30491664  0.39807608  0.57594186     0.04800
C715        C  0.33905703  0.41255694  0.57072822    -0.07500
C716        C  0.34463354  0.43239589  0.54212243    -0.08200
C717        C  0.31728093  0.43650934  0.51856356    -0.02800
C718        C  0.28219635  0.42969533  0.52807864     0.04000
N719        N  0.25373568  0.43545878  0.00574862     0.66500
H720        H  0.24924382  0.40247933  0.56178416     0.15400
H721        H  0.37160397  0.43993877  0.53569885     0.15200
N722        N  0.36857413  0.40690504  0.59247428     0.74200
O723        O  0.24245524  0.41122137  0.98757437    -0.39200
O724        O  0.23300340  0.45976548  0.01253363    -0.39100
O725        O  0.39322520  0.38765113  0.58230707    -0.39900
O726        O  0.37594339  0.42964149  0.61402776    -0.39900
C727        C  0.09460757  0.01087446  0.85119777    -0.12200
C728        C  0.10118734  0.00533964  0.88517894     0.04800
C729        C  0.11903977  0.03103719  0.90353705    -0.07500
C730        C  0.12203979  0.06389475  0.89039329    -0.08200
C731        C  0.10726896  0.07151767  0.85897347    -0.02800
C732        C  0.09126341  0.04425048  0.84010812     0.04000
N733        N  0.07280764  0.04966817  0.80905143     0.66500
H734        H  0.08193964  0.99084949  0.83640106     0.15400
H735        H  0.13591618  0.08300353  0.90506221     0.15200
N736        N  0.13164246  0.02495449  0.93676960     0.74200
O737        O  0.08796988  0.04200695  0.78166732    -0.39200
O738        O  0.03924483  0.05076812  0.80971141    -0.39100
O739        O  0.16451880  0.02013106  0.94089550    -0.39900
O740        O  0.11323759  0.03509055  0.96143600    -0.39900
C741        C  0.34791768  0.08056390  0.55304012    -0.12200
C742        C  0.34828282  0.11613987  0.55294616     0.04800
C743        C  0.36584188  0.13325960  0.52658271    -0.07500
C744        C  0.37352996  0.11536632  0.49723887    -0.08200
C745        C  0.36514046  0.08059905  0.49496550    -0.02800
C746        C  0.35411993  0.06276450  0.52371885     0.04000
N747        N  0.34928437  0.02667497  0.52413702     0.66500
H748        H  0.34119015  0.06586940  0.57493178     0.15400
H749        H  0.38617067  0.12841425  0.47638390     0.15200
N750        N  0.37687508  0.16808593  0.53000462     0.74200
O751        O  0.37313861  0.00884091  0.53760014    -0.39200
O752        O  0.32045433  0.01461615  0.02425626    -0.39100
O753        O  0.40578977  0.17481614  0.54481420    -0.39900
O754        O  0.35558026  0.19192486  0.52356635    -0.39900
C755        C  0.00849530  0.35085660  0.81427291    -0.12200
C756        C  0.02877339  0.36411697  0.84090482     0.04800
C757        C  0.06553177  0.37006949  0.83605459    -0.07500
C758        C  0.08161276  0.35796678  0.80700790    -0.08200
C759        C  0.06232115  0.33824902  0.78371918    -0.02800
C760        C  0.02486641  0.33892331  0.78510197     0.04000
N761        N  0.00333137  0.33259806  0.75610284     0.66500
H762        H  0.97977930  0.34964217  0.81607946     0.15400
H763        H  0.11026268  0.36056186  0.80459544     0.15200
N764        N  0.08765697  0.38627198  0.86069299     0.74200
O765        O  0.98030653  0.30908218  0.75699691    -0.39200
O766        O  0.99931648  0.35651599  0.73537325    -0.39100
O767        O  0.10678496  0.36781766  0.87916010    -0.39900
O768        O  0.09730040  0.41665736  0.85564565    -0.39900
C769        C  0.04661622  0.01574997  0.56252301    -0.12200
C770        C  0.01215840  0.02811699  0.55755934     0.04800
C771        C  0.00136326  0.05816178  0.57361410    -0.07500
C772        C  0.02497289  0.07514884  0.59455911    -0.08200
C773        C  0.05948007  0.06264301  0.60060143    -0.02800
C774        C  0.07078464  0.03328013  0.58257467     0.04000
N775        N  0.10721041  0.02290833  0.58077230     0.66500
H776        H  0.05605413  0.99376246  0.54850920     0.15400
H777        H  0.01633463  0.09962931  0.60389244     0.15200
N778        N  0.46733678  0.07303867  0.56778142     0.74200
O779        O  0.11622073  0.99596088  0.59562016    -0.39200
O780        O  0.12553437  0.03259047  0.55591203    -0.39100
O781        O  0.44417876  0.07088820  0.59072148    -0.39900
O782        O  0.46498578  0.09690461  0.54677520    -0.39900
C783        C  0.08089929  0.58190310  0.12154179     0.86600
C784        C  0.10994572  0.56228905  0.14083349    -0.53700
C785        C  0.13536724  0.58216865  0.15556995     0.09500
C786        C  0.12681479  0.62189615  0.15046217     0.20400
C787        C  0.06352056  0.60652740  0.14695707    -0.54400
C788        C  0.08550142  0.62884556  0.16216944     0.09600
C789        C  0.10275199  0.60441292  0.09657166    -0.53900
C790        C  0.12779154  0.62512360  0.11074660     0.10200
H791        H  0.11277905  0.53512442  0.14034147     0.14700
H792        H  0.14608275  0.63926301  0.16302187     0.00400
H793        H  0.03488839  0.60797816  0.15046788     0.15000
H794        H  0.09911076  0.60328846  0.06946406     0.14800
C795        C  0.06961052  0.66196957  0.18119948     0.30100
C796        C  0.06934663  0.72607708  0.21228939     0.30100
C797        C  0.08939125  0.69030134  0.16438411    -0.06100
C798        C  0.03030920  0.67967719  0.18433598    -0.06900
C799        C  0.08107094  0.66363329  0.21814452    -0.06800
C800        C  0.09019315  0.72192647  0.17993008    -0.06100
C801        C  0.03045436  0.71254628  0.20073506    -0.06900
C802        C  0.08125709  0.69573807  0.23369597    -0.06800
C803        C  0.09376627  0.74524100  0.15469969    -0.32200
N804        N  0.09597101  0.72895440  0.12497296     0.14300
C805        C  0.09034549  0.69586688  0.13047180    -0.32200
H806        H  0.08154881  0.67782821  0.11163474     0.16300
C807        C  0.49416504  0.72269124  0.20318171    -0.31100
N808        N  0.47144821  0.69888830  0.18872340     0.13100
C809        C  0.49348467  0.67293142  0.17711755    -0.31100
C810        C  0.07615248  0.68968699  0.26766343    -0.31400
N811        N  0.07594031  0.65572901  0.27411932     0.13600
H812        H  0.07084530  0.70909969  0.28642260     0.16200
C813        C  0.07520802  0.64025078  0.24356843    -0.31400
H814        H  0.07208334  0.61300904  0.24002891     0.16200
H815        H  0.48362964  0.64998843  0.16501580     0.16200
H816        H  0.08788409  0.77163328  0.15767120     0.16300
H817        H  0.48516243  0.74606150  0.21492635     0.16200
C818        C  0.08240449  0.81207404  0.26462780     0.86600
C819        C  0.10433438  0.83176712  0.23854442    -0.53700
C820        C  0.12748048  0.81295150  0.22039007     0.09500
C821        C  0.12413439  0.77303820  0.23013659     0.20400
C822        C  0.06184359  0.78337671  0.24565868    -0.54400
C823        C  0.08290425  0.76149698  0.22796668     0.09600
C824        C  0.10974305  0.79209693  0.28624599    -0.53900
C825        C  0.13278617  0.77241990  0.26895491     0.10200
H826        H  0.10349374  0.85933321  0.23669439     0.14700
H827        H  0.14132099  0.75602525  0.21494319     0.00400
H828        H  0.03381295  0.77818537  0.24894400     0.15000
H829        H  0.11045266  0.79299255  0.31358576     0.14800
C830        C  0.16986582  0.56634592  0.17247692     0.30100
C831        C  0.23122591  0.54968376  0.20817861     0.30100
C832        C  0.17343231  0.58082795  0.20688862    -0.06100
C833        C  0.17654033  0.52541418  0.18005596    -0.06900
C834        C  0.20589330  0.57874082  0.15744292    -0.06800
C835        C  0.20206846  0.57023086  0.22509124    -0.06100
C836        C  0.20823418  0.51826489  0.19863634    -0.06900
C837        C  0.23640041  0.56689569  0.17342405    -0.06800
C838        C  0.19531095  0.57825345  0.25749874    -0.32200
N839        N  0.16715886  0.59911471  0.25827326     0.14300
C840        C  0.15279328  0.60011551  0.22738015    -0.32200
H841        H  0.12793542  0.61101035  0.22077126     0.16300
C842        C  0.21015790  0.98461429  0.20667962    -0.31100
N843        N  0.18047758  0.96849080  0.19424686     0.13100
C844        C  0.16002914  0.49240581  0.17732234    -0.31100
C845        C  0.26515754  0.58364070  0.15938343    -0.31400
N846        N  0.25382162  0.61006817  0.14027696     0.13600
H847        H  0.29263499  0.57718231  0.16384318     0.16200
C848        C  0.21769384  0.60905357  0.14270402    -0.31400
H849        H  0.20131169  0.63091641  0.13908277     0.16200
H850        H  0.13665245  0.98863214  0.16476245     0.16200
H851        H  0.20900344  0.56774590  0.27881996     0.16300
H852        H  0.23147462  0.97170472  0.21961019     0.16200
C853        C  0.32216806  0.63518236  0.07277507     0.86600
C854        C  0.34100412  0.66130456  0.09538194    -0.53700
C855        C  0.31938019  0.67909581  0.11594236     0.09500
C856        C  0.27765997  0.66861826  0.10972014     0.20400
C857        C  0.30004203  0.61244336  0.09687871    -0.54400
C858        C  0.27611531  0.62925320  0.11631371     0.09600
C859        C  0.29371788  0.65373643  0.05204407    -0.53900
C860        C  0.26935792  0.67076287  0.07019412     0.10200
H861        H  0.36973529  0.66237870  0.09791975     0.14700
H862        H  0.25860705  0.68304789  0.12566531     0.00400
H863        H  0.30126404  0.58501371  0.09836443     0.15000
H864        H  0.29185569  0.65162979  0.02485582     0.14800
C865        C  0.11889300  0.59810283  0.33946531     0.86600
C866        C  0.08717563  0.61689620  0.32258477    -0.53700
C867        C  0.09786384  0.64152361  0.30028922     0.09500
C868        C  0.13815828  0.64418552  0.29665811     0.20400
C869        C  0.14173986  0.58520063  0.31073893    -0.54400
C870        C  0.14965565  0.60853760  0.28800100     0.09600
C871        C  0.14304672  0.62664848  0.35524610    -0.53900
C872        C  0.15371499  0.65071228  0.33235310     0.10200
H873        H  0.05955601  0.60926713  0.32555010     0.14700
H874        H  0.14679181  0.66183271  0.27652464     0.00400
H875        H  0.15098822  0.55911355  0.30788465     0.15000
H876        H  0.15493223  0.62551728  0.37993302     0.14800
C877        C  0.33368905  0.72316643  0.21398739     0.30100
C878        C  0.33510600  0.69614970  0.14923670     0.30100
C879        C  0.32223412  0.74665379  0.18556844    -0.06100
C880        C  0.37309461  0.71221197  0.20079501    -0.06900
C881        C  0.31247962  0.69161132  0.20722298    -0.06800
C882        C  0.32329308  0.73308048  0.15294342    -0.06100
C883        C  0.37381775  0.69797058  0.16737115    -0.06900
C884        C  0.31495391  0.67729544  0.17555326    -0.06800
C885        C  0.32937298  0.76020953  0.13192542    -0.32200
N886        N  0.32781864  0.78976937  0.14940399     0.14300
C887        C  0.32666086  0.78131211  0.18233142    -0.32200
H888        H  0.33090143  0.79910595  0.20285076     0.16300
C889        C  0.41047139  0.69090968  0.16049825    -0.31100
N890        N  0.43231434  0.70064876  0.18705278     0.13100
C891        C  0.40944321  0.71379511  0.21129182    -0.31100
C892        C  0.31507040  0.64286093  0.17991794    -0.31400
N893        N  0.30707487  0.63658576  0.21180716     0.13600
H894        H  0.32556125  0.62422145  0.16249512     0.16200
C895        C  0.30772648  0.66568518  0.22897426    -0.31400
H896        H  0.31322612  0.66738838  0.25511842     0.16200
H897        H  0.41836683  0.72414849  0.23515097     0.16200
H898        H  0.33616256  0.75877923  0.10551840     0.16300
H899        H  0.42038612  0.68033528  0.13710355     0.16200
C900        C  0.29430166  0.86425018  0.09883201     0.86600
C901        C  0.26433416  0.87346161  0.12333589    -0.53700
C902        C  0.24953807  0.84652703  0.13901696     0.09500
C903        C  0.26731723  0.81211952  0.12955405     0.20400
C904        C  0.32186053  0.84455007  0.12001925    -0.54400
C905        C  0.30726685  0.81722243  0.13612835     0.09600
C906        C  0.27837152  0.83631526  0.07501045    -0.53900
C907        C  0.26465403  0.80899957  0.09143361     0.10200
H908        H  0.25435821  0.89900412  0.12538576     0.14700
H909        H  0.25581160  0.78943439  0.14222127     0.00400
H910        H  0.35021846  0.84881538  0.12017880     0.15000
H911        H  0.27845561  0.83791785  0.04772233     0.14800
C912        C  0.32421191  0.55654028  0.25739454     0.86600
C913        C  0.29317675  0.53597100  0.23953373    -0.53700
C914        C  0.26419948  0.55635351  0.23166988     0.09500
C915        C  0.26997058  0.59433447  0.24354728     0.20400
C916        C  0.33177204  0.58514965  0.23250095    -0.54400
C917        C  0.30381164  0.60471324  0.22673806     0.09600
C918        C  0.30624658  0.57429044  0.28875787    -0.53900
C919        C  0.27831280  0.59493569  0.28123545     0.10200
H920        H  0.29477413  0.50950036  0.23182755     0.14700
H921        H  0.24911867  0.61306226  0.23695679     0.00400
H922        H  0.35789293  0.59146849  0.22233998     0.15000
H923        H  0.31719944  0.57329289  0.31401168     0.14800
C924        C  0.15793918  0.83105822  0.19895303     0.30100
C925        C  0.21651163  0.84750864  0.16092906     0.30100
C926        C  0.15601506  0.82125470  0.16165511    -0.06100
C927        C  0.16707147  0.87252633  0.19543928    -0.06900
C928        C  0.19437749  0.81565335  0.20946924    -0.06800
C929        C  0.18610828  0.82874364  0.14275318    -0.06100
C930        C  0.19761231  0.87919180  0.17526852    -0.06900
C931        C  0.22331828  0.82744378  0.19246996    -0.06800
C932        C  0.17567772  0.82949712  0.10950247    -0.32200
N933        N  0.14076850  0.82134544  0.10670853     0.14300
C934        C  0.12826307  0.81998660  0.13874492    -0.32200
H935        H  0.10031744  0.82129937  0.14487759     0.16300
C936        C  0.20369105  0.91408949  0.17307667    -0.31100
N937        N  0.17815842  0.93166700  0.18956024     0.13100
C938        C  0.15589957  0.90697549  0.20395245    -0.31100
C939        C  0.25318966  0.81329485  0.20595207    -0.31400
N940        N  0.24399802  0.78779028  0.22695504     0.13600
H941        H  0.27952772  0.82309892  0.20202072     0.16200
C942        C  0.20783654  0.78782285  0.22707556    -0.31400
H943        H  0.19286078  0.76667669  0.23543460     0.16200
H944        H  0.13340488  0.91317482  0.21981634     0.16200
H945        H  0.19194033  0.83846806  0.08898518     0.16300
H946        H  0.22593299  0.92660521  0.16130091     0.16200
C947        C  0.08450921  0.77217017  0.04162656     0.86600
C948        C  0.07386091  0.74967967  0.07153412    -0.53700
C949        C  0.10087226  0.74427137  0.09304149     0.09500
C950        C  0.13610549  0.76025131  0.08296963     0.20400
C951        C  0.10053513  0.80475176  0.05948452    -0.54400
C952        C  0.12779503  0.79806818  0.08102473     0.09600
C953        C  0.11645919  0.75411190  0.02452658    -0.53900
C954        C  0.14364780  0.74773142  0.04621328     0.10200
H955        H  0.04730901  0.74143418  0.07779261     0.14700
H956        H  0.15711430  0.75457546  0.10173928     0.00400
H957        H  0.08931615  0.83009740  0.05743860     0.15000
H958        H  0.11666244  0.74586340  0.99839880     0.14800
C959        C  0.31734164  0.78070421  0.29204148     0.86600
C960        C  0.33901000  0.75708813  0.26852370    -0.53700
C961        C  0.31922201  0.73588840  0.24946748     0.09500
C962        C  0.27769495  0.73723482  0.26052701     0.20400
C963        C  0.28820785  0.79650642  0.27009879    -0.54400
C964        C  0.26765305  0.77461427  0.25285282     0.09600
C965        C  0.29791667  0.75653463  0.31659775    -0.53900
C966        C  0.27496494  0.73457085  0.30139135     0.10200
H967        H  0.36748432  0.75913934  0.26452273     0.14700
H968        H  0.26019687  0.71893888  0.24692963     0.00400
H969        H  0.28506755  0.82389162  0.26707053     0.15000
H970        H  0.30046273  0.75746717  0.34369066     0.14800
C971        C  0.23634369  0.68796368  0.05326121     0.30100
C972        C  0.17651987  0.72572342  0.04022601     0.30100
C973        C  0.23602022  0.72456769  0.06631865    -0.06100
C974        C  0.22797758  0.69436229  0.01340402    -0.06900
C975        C  0.20023118  0.67300500  0.06610797    -0.06800
C976        C  0.20695234  0.74366822  0.05829719    -0.06100
C977        C  0.19645080  0.71353652  0.00751452    -0.06900
C978        C  0.17080225  0.69236099  0.05965856    -0.06800
C979        C  0.21661133  0.77744330  0.06157263    -0.32200
N980        N  0.24951965  0.77938372  0.07508030     0.14300
C981        C  0.26195373  0.74706513  0.07697144    -0.32200
H982        H  0.28848967  0.74003603  0.08339889     0.16300
C983        C  0.19446174  0.71948028  0.47289630    -0.31100
N984        N  0.22260054  0.70521827  0.45600706     0.13100
C985        C  0.24329553  0.68968886  0.48042066    -0.31100
C986        C  0.14133265  0.67554465  0.07288697    -0.31400
N987        N  0.15145451  0.64729300  0.09000246     0.13600
H988        H  0.11424466  0.68283049  0.06830077     0.16200
C989        C  0.18689930  0.64375810  0.08191203    -0.31400
H990        H  0.20175907  0.62056870  0.08449937     0.16200
H991        H  0.26712240  0.67543157  0.47471228     0.16200
H992        H  0.20112318  0.79874927  0.05316383     0.16300
H993        H  0.17311245  0.73308044  0.46074630     0.16200
C994        C  0.24527830  0.71413226  0.32180521     0.30100
C995        C  0.18687565  0.67335775  0.33471857     0.30100
C996        C  0.24747885  0.67663628  0.31003998    -0.06100
C997        C  0.23588816  0.70834492  0.36191457    -0.06900
C998        C  0.20850470  0.72670331  0.30885934    -0.06800
C999        C  0.21803973  0.65645712  0.31609768    -0.06100
C1000       C  0.20533100  0.68719717  0.36713245    -0.06900
C1001       C  0.17999900  0.70600753  0.31524981    -0.06800
C1002       C  0.22914836  0.62286290  0.31345144    -0.32200
N1003       N  0.26372211  0.62128757  0.30367001     0.14300
C1004       C  0.27561660  0.65412023  0.30504758    -0.32200
H1005       H  0.30343612  0.66106821  0.30568799     0.16300
C1006       C  0.19903837  0.68387077  0.40153547    -0.31100
N1007       N  0.22425589  0.70096834  0.41958898     0.13100
C1008       C  0.24660431  0.71636317  0.39595616    -0.31100
C1009       C  0.14979426  0.72154740  0.30290026    -0.31400
N1010       N  0.15846770  0.75057855  0.28674690     0.13600
H1011       H  0.12323470  0.71290134  0.30732670     0.16200
C1012       C  0.19382846  0.75581519  0.29421267    -0.31400
H1013       H  0.20792316  0.77949174  0.29041669     0.16200
H1014       H  0.26871935  0.73280052  0.40264583     0.16200
H1015       H  0.21371272  0.60107216  0.32114902     0.16300
H1016       H  0.17700964  0.67026150  0.41280250     0.16200
N1017       N  0.47944153  0.51115493  0.47722975    -0.06000
N1018       N  0.47735688  0.53416713  0.50141711    -0.58200
N1019       N  0.02885295  0.96491056  0.42471701    -0.05700
N1020       N  0.06354849  0.96316742  0.41906138    -0.60300
N1021       N  0.51621305  0.49530971  0.41141963    -0.05300
N1022       N  0.54229216  0.51250654  0.39795660    -0.58100
N1023       N  0.99089320  0.97761808  0.49091996    -0.05000
N1024       N  0.99697918  0.97903484  0.52335823    -0.60600
C1025       C  0.98693979  0.51600586  0.02871182     0.96100
C1026       C  0.07074457  0.49269183  0.40333073     0.95900
N1027       N  0.46913082  0.87799002  0.41009877    -0.06200
N1028       N  0.47570544  0.86172704  0.38166206    -0.58700
N1029       N  0.96536671  0.90350017  0.49253479    -0.04400
N1030       N  0.98348193  0.88779073  0.51584149    -0.60000
N1031       N  0.44047777  0.88335252  0.48044417    -0.06300
N1032       N  0.44416187  0.85262179  0.49328508    -0.59000
N1033       N  0.99813589  0.89302369  0.42126870    -0.04000
N1034       N  0.02485060  0.88753047  0.40062156    -0.60100
Mn1035     Mn  0.99638849  0.93422340  0.45806662     1.18400
C1036       C  0.01075560  0.86766765  0.37638590     0.98200
C1037       C  0.97284094  0.85464238  0.01241748     0.98900
N1038       N  0.44738794  0.51667906  0.37114997    -0.06300
N1039       N  0.46255203  0.52566206  0.34231515    -0.62600
N1040       N  0.38530016  0.01820685  0.43738140    -0.05100
N1041       N  0.35958986  0.03547496  0.45207621    -0.63300
N1042       N  0.41648520  0.53849597  0.43804579    -0.05800
N1043       N  0.41281200  0.56731720  0.45430367    -0.62900
N1044       N  0.41534342  0.99743670  0.36868428    -0.04700
N1045       N  0.41125343  0.49863589  0.33294522    -0.63500
Mn1046     Mn  0.46574736  0.51659301  0.42391127     1.10700
C1047       C  0.43945409  0.51370971  0.31847748     0.99400
C1048       C  0.37728255  0.56651834  0.96106420     0.99500
N1049       N  0.36839035  0.91382540  0.45289216    -0.05800
N1050       N  0.35295916  0.90372232  0.48076642    -0.61200
N1051       N  0.38220325  0.93033086  0.37297297    -0.05100
N1052       N  0.37257666  0.93021089  0.34116598    -0.61100
N1053       N  0.39823277  0.90209234  0.38069361    -0.06400
N1054       N  0.40071097  0.88243053  0.35397644    -0.60700
N1055       N  0.35630600  0.94408201  0.44458352    -0.05400
N1056       N  0.33290643  0.95521816  0.46679830    -0.57900
Mn1057     Mn  0.41790385  0.89277200  0.43089694     1.20200
Mn1058     Mn  0.38289989  0.97317584  0.40599058     1.10100
Cl1059     Cl  0.44055549  0.95327764  0.43069382    -0.85900
C1060       C  0.33078546  0.92978183  0.98839485     0.96400
C1061       C  0.38322003  0.89958529  0.32962978     0.96200
C1062       C  0.36129189  0.82607651  0.28191414    -0.12200
C1063       C  0.33736865  0.81105080  0.30508743     0.04800
C1064       C  0.32125598  0.83249284  0.32952563    -0.07500
C1065       C  0.33048814  0.86672222  0.33103936    -0.08200
C1066       C  0.35823214  0.87927460  0.31100886    -0.02800
C1067       C  0.37130510  0.85975545  0.28449303     0.04000
N1068       N  0.39431922  0.87372750  0.25948582     0.66500
H1069       H  0.37053083  0.81295922  0.25962180     0.15400
H1070       H  0.32005495  0.88206207  0.35160627     0.15200
N1071       N  0.29611968  0.81992028  0.35346763     0.74200
O1072       O  0.42699643  0.86684360  0.26088561    -0.39200
O1073       O  0.38106941  0.88127287  0.23132687    -0.39100
O1074       O  0.30699065  0.80846566  0.38120987    -0.39900
O1075       O  0.26351410  0.81786401  0.34606743    -0.39900
C1076       C  0.06068838  0.80952353  0.99840241    -0.12200
C1077       C  0.05428755  0.78082971  0.01781860     0.04800
C1078       C  0.01827030  0.77073780  0.02283069    -0.07500
C1079       C  0.99142627  0.79491809  0.01907446    -0.08200
C1080       C  0.00020207  0.82811475  0.00979194    -0.02800
C1081       C  0.03503889  0.83473968  0.99690437     0.04000
N1082       N  0.04678121  0.86750168  0.98574856     0.66500
H1083       H  0.08783111  0.81611251  0.99156826     0.15400
H1084       H  0.96404069  0.78809512  0.02455588     0.15200
N1085       N  0.00803269  0.73590804  0.02734758     0.74200
O1086       O  0.05785462  0.88845666  0.00764476    -0.39200
O1087       O  0.05949283  0.86959519  0.95644970    -0.39100
O1088       O  0.99035148  0.72795616  0.05320881    -0.39900
O1089       O  0.00482914  0.71745986  0.00136290    -0.39900
C1090       C  0.38362476  0.56874005  0.28180053    -0.12200
C1091       C  0.36154843  0.54377537  0.26622188     0.04800
C1092       C  0.37833642  0.51356425  0.25476136    -0.07500
C1093       C  0.41405114  0.50750129  0.26378507    -0.08200
C1094       C  0.43204960  0.52968689  0.28617369    -0.02800
C1095       C  0.41907235  0.56282480  0.28922571     0.04000
N1096       N  0.43941159  0.58935048  0.30489161     0.66500
H1097       H  0.37340361  0.59391507  0.28757445     0.15400
H1098       H  0.42501339  0.48244585  0.25884880     0.15200
N1099       N  0.36036352  0.48860319  0.23472859     0.74200
O1100       O  0.45533107  0.61038655  0.28620080    -0.39200
O1101       O  0.43197700  0.59811140  0.33470716    -0.39100
O1102       O  0.36759046  0.48700244  0.20371844    -0.39900
O1103       O  0.34158312  0.96142961  0.25714060    -0.39900
C1104       C  0.27682076  0.90908747  0.05934043    -0.12200
C1105       C  0.30455187  0.89551373  0.07890997     0.04800
C1106       C  0.33898568  0.91001549  0.07553858    -0.07500
C1107       C  0.34608524  0.92996647  0.04738618    -0.08200
C1108       C  0.31971441  0.93470248  0.02303964    -0.02800
C1109       C  0.28416011  0.92876830  0.03144158     0.04000
N1110       N  0.25615987  0.93853789  0.51191099     0.66500
H1111       H  0.24952917  0.90075822  0.06304594     0.15400
H1112       H  0.37338487  0.93725663  0.04203475     0.15200
N1113       N  0.36708168  0.90486400  0.09906513     0.74200
O1114       O  0.24400877  0.91675090  0.49138064    -0.39200
O1115       O  0.23617074  0.96244418  0.52158617    -0.39100
O1116       O  0.39316741  0.88671794  0.09021024    -0.39900
O1117       O  0.37187175  0.92718148  0.12166635    -0.39900
C1118       C  0.10144586  0.50443538  0.35516342    -0.12200
C1119       C  0.10488072  0.50241380  0.38990968     0.04800
C1120       C  0.12071361  0.52999672  0.40710467    -0.07500
C1121       C  0.12254302  0.56178791  0.39170692    -0.08200
C1122       C  0.10981330  0.56607821  0.35885181    -0.02800
C1123       C  0.09726443  0.53648793  0.34104022     0.04000
N1124       N  0.08036030  0.53829021  0.30875486     0.66500
H1125       H  0.09086094  0.48270686  0.34133716     0.15400
H1126       H  0.13303033  0.58285572  0.40623078     0.15200
N1127       N  0.12947378  0.52768575  0.44193267     0.74200
O1128       O  0.09733057  0.52857887  0.28299016    -0.39200
O1129       O  0.04679511  0.53741474  0.30781926    -0.39100
O1130       O  0.16189342  0.52649934  0.45004591    -0.39900
O1131       O  0.10709170  0.53772743  0.46349122    -0.39900
C1132       C  0.34973083  0.58206371  0.04952785    -0.12200
C1133       C  0.34742713  0.61751403  0.04957474     0.04800
C1134       C  0.36308327  0.63590278  0.02293184    -0.07500
C1135       C  0.37086345  0.61886141  0.99311703    -0.08200
C1136       C  0.36564122  0.58359450  0.99104587    -0.02800
C1137       C  0.35779409  0.56487597  0.02020770     0.04000
N1138       N  0.35911114  0.52856190  0.02120606     0.66500
H1139       H  0.34448919  0.56705552  0.07161073     0.15400
H1140       H  0.38155420  0.63288228  0.97192002     0.15200
N1141       N  0.37278375  0.67103199  0.02678875     0.74200
O1142       O  0.38738604  0.51484717  0.03141031    -0.39200
O1143       O  0.33049256  0.51447616  0.52197681    -0.39100
O1144       O  0.40195511  0.67846839  0.04080268    -0.39900
O1145       O  0.35033479  0.69421491  0.02162294    -0.39900
C1146       C  0.00831311  0.85238141  0.31615511    -0.12200
C1147       C  0.02876724  0.86122990  0.34443108     0.04800
C1148       C  0.06606556  0.86414652  0.34115953    -0.07500
C1149       C  0.08192843  0.85390479  0.31139251    -0.08200
C1150       C  0.06200845  0.83667435  0.28668623    -0.02800
C1151       C  0.02474230  0.84035357  0.28693555     0.04000
N1152       N  0.00407071  0.83718509  0.25694383     0.66500
H1153       H  0.97955404  0.85430018  0.31682618     0.15400
H1154       H  0.11074718  0.85476269  0.30982677     0.15200
N1155       N  0.08884565  0.87340748  0.36857193     0.74200
O1156       O  0.98055320  0.81418111  0.25517147    -0.39200
O1157       O  0.00094945  0.86315697  0.23860348    -0.39100
O1158       O  0.10294214  0.84989178  0.38541389    -0.39900
O1159       O  0.10382065  0.90226374  0.36815260    -0.39900
C1160       C  0.02077028  0.51256361  0.08133953    -0.12200
C1161       C  0.00258000  0.53283130  0.05826209     0.04800
C1162       C  0.00446116  0.56851323  0.06159009    -0.07500
C1163       C  0.02911382  0.58274298  0.08349710    -0.08200
C1164       C  0.05168236  0.56242865  0.10315182    -0.02800
C1165       C  0.04465627  0.52683806  0.10427649     0.04000
N1166       N  0.05847830  0.50480540  0.12945153     0.66500
H1167       H  0.01726796  0.48511928  0.08108312     0.15400
H1168       H  0.03150864  0.61030624  0.08429109     0.15200
N1169       N  0.48236691  0.59106379  0.04279160     0.74200
O1170       O  0.03913616  0.49868432  0.15473313    -0.39200
O1171       O  0.08112162  0.48279103  0.12069442    -0.39100
O1172       O  0.45558079  0.60368419  0.05738022    -0.39900
O1173       O  0.49568926  0.60673601  0.01812160    -0.39900
C1174       C  0.08132791  0.58265186  0.62121206     0.86600
C1175       C  0.11044676  0.56295669  0.64033033    -0.53700
C1176       C  0.13598517  0.58277046  0.65500551     0.09500
C1177       C  0.12749032  0.62249753  0.64999813     0.20400
C1178       C  0.06414918  0.60727234  0.64672437    -0.54400
C1179       C  0.08625461  0.62952480  0.66183346     0.09600
C1180       C  0.10310613  0.60517243  0.59617353    -0.53900
C1181       C  0.12829640  0.62578285  0.61031997     0.10200
H1182       H  0.11319577  0.53578107  0.63970655     0.14700
H1183       H  0.14686540  0.63980251  0.66249586     0.00400
H1184       H  0.03554107  0.60877670  0.65038614     0.15000
H1185       H  0.09932359  0.60410711  0.56908350     0.14800
C1186       C  0.07052152  0.66263562  0.68091215     0.30100
C1187       C  0.07034011  0.72655444  0.71225625     0.30100
C1188       C  0.09045365  0.69098900  0.66426728    -0.06100
C1189       C  0.03126931  0.68038416  0.68402275    -0.06900
C1190       C  0.08188310  0.66409472  0.71787882    -0.06800
C1191       C  0.09128236  0.72253078  0.67996487    -0.06100
C1192       C  0.03143944  0.71317210  0.70055508    -0.06900
C1193       C  0.08210022  0.69612478  0.73356481    -0.06800
C1194       C  0.09493978  0.74599483  0.65488760    -0.32200
N1195       N  0.09720764  0.72986060  0.62508830     0.14300
C1196       C  0.09149484  0.69675204  0.63039387    -0.32200
H1197       H  0.08261001  0.67885422  0.61146240     0.16300
C1198       C  0.49514825  0.72338646  0.70301927    -0.31100
N1199       N  0.47244694  0.69962359  0.68847426     0.13100
C1200       C  0.49447757  0.67372627  0.67676514    -0.31100
C1201       C  0.07677772  0.68995909  0.76746958    -0.31400
N1202       N  0.07645699  0.65598312  0.77378547     0.13600
H1203       H  0.07146501  0.70930786  0.78629165     0.16200
C1204       C  0.07581634  0.64062919  0.74317548    -0.31400
H1205       H  0.07268216  0.61339792  0.73951293     0.16200
H1206       H  0.48462353  0.65080677  0.66462028     0.16200
H1207       H  0.08899229  0.77228918  0.65797548     0.16300
H1208       H  0.48612654  0.74668136  0.71489487     0.16200
C1209       C  0.08308709  0.81234926  0.76472079     0.86600
C1210       C  0.10507875  0.83209250  0.73871832    -0.53700
C1211       C  0.12845132  0.81331399  0.72078060     0.09500
C1212       C  0.12511963  0.77342974  0.73045810     0.20400
C1213       C  0.06272688  0.78361299  0.74570240    -0.54400
C1214       C  0.08390705  0.76183631  0.72811110     0.09600
C1215       C  0.11044154  0.79253240  0.78648845    -0.53900
C1216       C  0.13362801  0.77289287  0.76926819     0.10200
H1217       H  0.10416945  0.85965238  0.73684723     0.14700
H1218       H  0.14242066  0.75645672  0.71534201     0.00400
H1219       H  0.03471360  0.77829717  0.74884162     0.15000
H1220       H  0.11106000  0.79354614  0.81382645     0.14800
C1221       C  0.17047850  0.56690208  0.67186763     0.30100
C1222       C  0.23168241  0.54986038  0.70757327     0.30100
C1223       C  0.17411136  0.58134894  0.70630479    -0.06100
C1224       C  0.17693373  0.52594972  0.67935608    -0.06900
C1225       C  0.20660506  0.57912962  0.65685326    -0.06800
C1226       C  0.20270405  0.57062237  0.72449400    -0.06100
C1227       C  0.20854135  0.51860053  0.69795630    -0.06900
C1228       C  0.23703143  0.56707228  0.67284652    -0.06800
C1229       C  0.19595372  0.57856722  0.75692102    -0.32200
N1230       N  0.16780636  0.59943559  0.75776901     0.14300
C1231       C  0.15348956  0.60061401  0.72685165    -0.32200
H1232       H  0.12871555  0.61153004  0.72029100     0.16300
C1233       C  0.21007540  0.98498120  0.70694842    -0.31100
N1234       N  0.18054477  0.96880967  0.69432054     0.13100
C1235       C  0.16038006  0.49300822  0.67629540    -0.31100
C1236       C  0.26593985  0.58365559  0.65888476    -0.31400
N1237       N  0.25479351  0.61018883  0.63984436     0.13600
H1238       H  0.29336967  0.57706880  0.66340872     0.16200
C1239       C  0.21865548  0.60943562  0.64227051    -0.31400
H1240       H  0.20245334  0.63145465  0.63878971     0.16200
H1241       H  0.13684797  0.98878006  0.66459445     0.16200
H1242       H  0.20954070  0.56783730  0.77820067     0.16300
H1243       H  0.23129399  0.97213593  0.72008163     0.16200
C1244       C  0.32332593  0.63598010  0.57266709     0.86600
C1245       C  0.34198878  0.66200339  0.59545672    -0.53700
C1246       C  0.32025751  0.67945762  0.61615932     0.09500
C1247       C  0.27858917  0.66890299  0.60981167     0.20400
C1248       C  0.30132319  0.61293108  0.59664348    -0.54400
C1249       C  0.27724141  0.62952782  0.61614811     0.09600
C1250       C  0.29475934  0.65449355  0.55206032    -0.53900
C1251       C  0.27026784  0.67122584  0.57029370     0.10200
H1252       H  0.37071108  0.66317964  0.59804284     0.14700
H1253       H  0.25946281  0.68314630  0.62584128     0.00400
H1254       H  0.30277200  0.58550220  0.59799794     0.15000
H1255       H  0.29295871  0.65260747  0.52485533     0.14800
C1256       C  0.11950847  0.59836368  0.83901455     0.86600
C1257       C  0.08775564  0.61710103  0.82216766    -0.53700
C1258       C  0.09842083  0.64171075  0.79985636     0.09500
C1259       C  0.13870763  0.64442122  0.79618531     0.20400
C1260       C  0.14230913  0.58541662  0.81025141    -0.54400
C1261       C  0.15024379  0.60878253  0.78750947     0.09600
C1262       C  0.14359184  0.62694219  0.85475228    -0.53900
C1263       C  0.15422262  0.65094567  0.83187915     0.10200
H1264       H  0.06013874  0.60949350  0.82520160     0.14700
H1265       H  0.14731051  0.66212194  0.77608266     0.00400
H1266       H  0.15151533  0.55931871  0.80741432     0.15000
H1267       H  0.15552113  0.62595391  0.87940839     0.14800
C1268       C  0.33465397  0.72273301  0.71443591     0.30100
C1269       C  0.33592493  0.69618257  0.64958528     0.30100
C1270       C  0.32266087  0.74624663  0.68628772    -0.06100
C1271       C  0.37411123  0.71239600  0.70094128    -0.06900
C1272       C  0.31398202  0.69087754  0.70774093    -0.06800
C1273       C  0.32374555  0.73292597  0.65357470    -0.06100
C1274       C  0.37476575  0.69834886  0.66744178    -0.06900
C1275       C  0.31618775  0.67685767  0.67589085    -0.06800
C1276       C  0.33014408  0.76019375  0.63281628    -0.32200
N1277       N  0.32871721  0.78961362  0.65049595     0.14300
C1278       C  0.32722012  0.78091234  0.68332566    -0.32200
H1279       H  0.33162399  0.79850100  0.70398330     0.16300
C1280       C  0.41143105  0.69156960  0.66037665    -0.31100
N1281       N  0.43331702  0.70129717  0.68690055     0.13100
C1282       C  0.41048090  0.71414656  0.71131055    -0.31100
C1283       C  0.31668557  0.64235677  0.67991298    -0.31400
N1284       N  0.30960186  0.63575231  0.71192482     0.13600
H1285       H  0.32674004  0.62389568  0.66208238     0.16200
C1286       C  0.31025561  0.66468749  0.72937129    -0.31400
H1287       H  0.31639927  0.66614907  0.75537328     0.16200
H1288       H  0.41944092  0.72432236  0.73522961     0.16200
H1289       H  0.33715409  0.75893035  0.60644623     0.16300
H1290       H  0.42131218  0.68112339  0.63691364     0.16200
C1291       C  0.29577811  0.86437330  0.60010321     0.86600
C1292       C  0.26602450  0.87377655  0.62478459    -0.53700
C1293       C  0.25096074  0.84690915  0.64032606     0.09500
C1294       C  0.26843175  0.81238568  0.63078191     0.20400
C1295       C  0.32322148  0.84444951  0.62120094    -0.54400
C1296       C  0.30840833  0.81722644  0.63730659     0.09600
C1297       C  0.27954143  0.83660468  0.57628064    -0.53900
C1298       C  0.26569134  0.80932601  0.59265500     0.10200
H1299       H  0.25646074  0.89943314  0.62713335     0.14700
H1300       H  0.25677625  0.78977732  0.64346803     0.00400
H1301       H  0.35160120  0.84857195  0.62145821     0.15000
H1302       H  0.27959695  0.83825799  0.54899508     0.14800
C1303       C  0.32425514  0.55531495  0.75749264     0.86600
C1304       C  0.29305978  0.53524551  0.73940180    -0.53700
C1305       C  0.26466976  0.55615102  0.73107080     0.09500
C1306       C  0.27099957  0.59407531  0.74285226     0.20400
C1307       C  0.33274644  0.58369539  0.73259292    -0.54400
C1308       C  0.30530993  0.60376960  0.72641377     0.09600
C1309       C  0.30622049  0.57352919  0.78860046    -0.53900
C1310       C  0.27881107  0.59468670  0.78067385     0.10200
H1311       H  0.29414261  0.50866232  0.73199018     0.14700
H1312       H  0.25050799  0.61304916  0.73592733     0.00400
H1313       H  0.35914852  0.58955946  0.72282054     0.15000
H1314       H  0.31672371  0.57230950  0.81401253     0.14800
C1315       C  0.15910984  0.83139759  0.69967549     0.30100
C1316       C  0.21786803  0.84800343  0.66209788     0.30100
C1317       C  0.15759114  0.82132125  0.66248638    -0.06100
C1318       C  0.16788723  0.87287994  0.69592841    -0.06900
C1319       C  0.19558695  0.81631912  0.71067378    -0.06800
C1320       C  0.18781575  0.82887506  0.64380295    -0.06100
C1321       C  0.19853017  0.87964260  0.67593949    -0.06900
C1322       C  0.22460297  0.82834071  0.69390614    -0.06800
C1323       C  0.17757920  0.82990578  0.61051605    -0.32200
N1324       N  0.14268200  0.82191851  0.60749805     0.14300
C1325       C  0.12998274  0.82035283  0.63942957    -0.32200
H1326       H  0.10203152  0.82194407  0.64540534     0.16300
C1327       C  0.20421109  0.91455270  0.67341413    -0.31100
N1328       N  0.17841427  0.93200516  0.68964444     0.13100
C1329       C  0.15632028  0.90725626  0.70412637    -0.31100
C1330       C  0.25448116  0.81413934  0.70731867    -0.31400
N1331       N  0.24529416  0.78834392  0.72795668     0.13600
H1332       H  0.28087349  0.82382746  0.70331675     0.16200
C1333       C  0.20910114  0.78817883  0.72784570    -0.31400
H1334       H  0.19416233  0.76674261  0.73566153     0.16200
H1335       H  0.13370155  0.91338172  0.71985834     0.16200
H1336       H  0.19392973  0.83912955  0.59016493     0.16300
H1337       H  0.22635517  0.92719313  0.66161167     0.16200
C1338       C  0.08610244  0.77384884  0.54207172     0.86600
C1339       C  0.07523966  0.75130523  0.57189693    -0.53700
C1340       C  0.10222577  0.74536430  0.59326766     0.09500
C1341       C  0.13759187  0.76106021  0.58325882     0.20400
C1342       C  0.10252618  0.80611130  0.56012019    -0.54400
C1343       C  0.12970475  0.79898750  0.58156042     0.09600
C1344       C  0.11780063  0.75555817  0.52479087    -0.53900
C1345       C  0.14491171  0.74868557  0.54642627     0.10200
H1346       H  0.04856753  0.74352588  0.57828774     0.14700
H1347       H  0.15856317  0.75504343  0.60196117     0.00400
H1348       H  0.09155086  0.83158184  0.55838720     0.15000
H1349       H  0.11788307  0.74752396  0.49860008     0.14800
C1350       C  0.31891230  0.77973465  0.79281017     0.86600
C1351       C  0.34027086  0.75599153  0.76921664    -0.53700
C1352       C  0.32020611  0.73529569  0.74991688     0.09500
C1353       C  0.27867064  0.73706476  0.76085479     0.20400
C1354       C  0.29000536  0.79609972  0.77090942    -0.54400
C1355       C  0.26908558  0.77462118  0.75350151     0.09600
C1356       C  0.29906828  0.75566097  0.81711328    -0.53900
C1357       C  0.27581857  0.73419725  0.80167095     0.10200
H1358       H  0.36879023  0.75762760  0.76535001     0.14700
H1359       H  0.26105444  0.71900771  0.74707353     0.00400
H1360       H  0.28721378  0.82355035  0.76815911     0.15000
H1361       H  0.30161494  0.75619671  0.84420577     0.14800
C1362       C  0.23724125  0.68844481  0.55338446     0.30100
C1363       C  0.17760838  0.72648799  0.54033141     0.30100
C1364       C  0.23714954  0.72512138  0.56627110    -0.06100
C1365       C  0.22875167  0.69468874  0.51350659    -0.06900
C1366       C  0.20108592  0.67371046  0.56635860    -0.06800
C1367       C  0.20823418  0.74434371  0.55819354    -0.06100
C1368       C  0.19731135  0.71401256  0.50764103    -0.06900
C1369       C  0.17175236  0.69321526  0.55989147    -0.06800
C1370       C  0.21780204  0.77806915  0.56215570    -0.32200
N1371       N  0.25048353  0.77978358  0.57619098     0.14300
C1372       C  0.26287211  0.74741594  0.57778385    -0.32200
H1373       H  0.28922318  0.74023606  0.58465682     0.16300
C1374       C  0.19381743  0.71923283  0.97277007    -0.31100
N1375       N  0.22217047  0.70525008  0.95594095     0.13100
C1376       C  0.24279933  0.68970113  0.98038575    -0.31100
C1377       C  0.14212933  0.67635344  0.57274331    -0.31400
N1378       N  0.15204748  0.64790993  0.58964649     0.13600
H1379       H  0.11509163  0.68374865  0.56802301     0.16200
C1380       C  0.18752736  0.64433383  0.58176254    -0.31400
H1381       H  0.20223464  0.62103234  0.58418398     0.16200
H1382       H  0.26677803  0.67565069  0.97474412     0.16200
H1383       H  0.20236282  0.79950414  0.55398810     0.16300
H1384       H  0.17246403  0.73279485  0.96058424     0.16200
C1385       C  0.24592706  0.71396987  0.82184988     0.30100
C1386       C  0.18741054  0.67340179  0.83438107     0.30100
C1387       C  0.24807096  0.67650882  0.80996167    -0.06100
C1388       C  0.23630710  0.70821022  0.86190707    -0.06900
C1389       C  0.20927720  0.72673345  0.80875517    -0.06800
C1390       C  0.21861241  0.65639668  0.81590155    -0.06100
C1391       C  0.20564697  0.68718711  0.86692207    -0.06900
C1392       C  0.18070407  0.70606620  0.81493526    -0.06800
C1393       C  0.22961513  0.62277437  0.81295514    -0.32200
N1394       N  0.26414490  0.62117205  0.80298163     0.14300
C1395       C  0.27611766  0.65398659  0.80453779    -0.32200
H1396       H  0.30391126  0.66088439  0.80539081     0.16300
C1397       C  0.19894891  0.68405701  0.90127912    -0.31100
N1398       N  0.22405170  0.70110410  0.91951216     0.13100
C1399       C  0.24672207  0.71631066  0.89602550    -0.31100
C1400       C  0.15052776  0.72180015  0.80280519    -0.31400
N1401       N  0.15925711  0.75101888  0.78705329     0.13600
H1402       H  0.12393757  0.71316670  0.80712825     0.16200
C1403       C  0.19464507  0.75609521  0.79453229    -0.31400
H1404       H  0.20879478  0.77979040  0.79101124     0.16200
H1405       H  0.26883261  0.73269501  0.90285495     0.16200
H1406       H  0.21415057  0.60098079  0.82058707     0.16300
H1407       H  0.17672621  0.67061385  0.91239672     0.16200
N1408       N  0.47959810  0.51036516  0.97653257    -0.06000
N1409       N  0.47767099  0.53334972  0.00073287    -0.58200
N1410       N  0.02825990  0.96579488  0.92398772    -0.05700
N1411       N  0.06270777  0.96397301  0.91708239    -0.60300
N1412       N  0.51673062  0.49565842  0.91105641    -0.05300
N1413       N  0.54306525  0.51375755  0.89919549    -0.58100
N1414       N  0.99057301  0.97811789  0.99045350    -0.05000
N1415       N  0.99732964  0.97973078  0.02276747    -0.60600
C1416       C  0.98609637  0.51678713  0.52957761     0.96100
C1417       C  0.07172140  0.49401659  0.90465974     0.95900
N1418       N  0.46934660  0.87842254  0.90973181    -0.06200
N1419       N  0.47603170  0.86183903  0.88150869    -0.58700
N1420       N  0.96586728  0.90330060  0.99182125    -0.04400
N1421       N  0.98433565  0.88693906  0.01444807    -0.60000
N1422       N  0.44053878  0.88358068  0.97990563    -0.06300
N1423       N  0.44396950  0.85263589  0.99230705    -0.59000
N1424       N  0.99824057  0.89371983  0.92071544    -0.04000
N1425       N  0.02498726  0.88817746  0.90014043    -0.60100
Mn1426     Mn  0.99633291  0.93477053  0.95749831     1.18400
C1427       C  0.01105229  0.86787732  0.87619445     0.98200
C1428       C  0.97269042  0.85528687  0.51387319     0.98900
N1429       N  0.44725158  0.51565488  0.87058158    -0.06300
N1430       N  0.46267894  0.52373873  0.84160345    -0.62600
N1431       N  0.38446269  0.01851624  0.93668410    -0.05100
N1432       N  0.35857955  0.03614519  0.95068682    -0.63300
N1433       N  0.41617579  0.53720825  0.93785092    -0.05800
N1434       N  0.41236245  0.56541783  0.95509689    -0.62900
N1435       N  0.41488939  0.99784276  0.86812296    -0.04700
N1436       N  0.41137344  0.49674930  0.83257291    -0.63500
Mn1437     Mn  0.46571640  0.51596078  0.92335939     1.10700
C1438       C  0.43966465  0.51137985  0.81787045     0.99400
C1439       C  0.37766359  0.56911337  0.45974348     0.99500
N1440       N  0.36844784  0.91408745  0.95237749    -0.05800
N1441       N  0.35326239  0.90414076  0.98042641    -0.61200
N1442       N  0.38219499  0.93039726  0.87231015    -0.05100
N1443       N  0.37258266  0.92998385  0.84048440    -0.61100
N1444       N  0.39853283  0.90236689  0.88018065    -0.06400
N1445       N  0.40134696  0.88262910  0.85356156    -0.60700
N1446       N  0.35606020  0.94417349  0.94384558    -0.05400
N1447       N  0.33264176  0.95533075  0.96602349    -0.57900
Mn1448     Mn  0.41802627  0.89314077  0.93042517     1.20200
Mn1449     Mn  0.38248800  0.97334428  0.90529666     1.10100
Cl1450     Cl  0.44023922  0.95366075  0.93026479    -0.85900
C1451       C  0.33071743  0.92949608  0.48897409     0.96400
C1452       C  0.38359198  0.89938305  0.82913007     0.96200
C1453       C  0.36322392  0.82470858  0.78284978    -0.12200
C1454       C  0.33939039  0.80970428  0.80611431     0.04800
C1455       C  0.32327538  0.83117761  0.83050129    -0.07500
C1456       C  0.33151447  0.86566771  0.83121321    -0.08200
C1457       C  0.35883755  0.87848302  0.81081193    -0.02800
C1458       C  0.37234983  0.85866497  0.78470190     0.04000
N1459       N  0.39510357  0.87255649  0.75945208     0.66500
H1460       H  0.37287767  0.81135990  0.76085584     0.15400
H1461       H  0.32093161  0.88110468  0.85164046     0.15200
N1462       N  0.29932071  0.81832074  0.85533904     0.74200
O1463       O  0.42795268  0.86657743  0.76122896    -0.39200
O1464       O  0.38183062  0.87893082  0.73101174    -0.39100
O1465       O  0.31156489  0.80609687  0.88222923    -0.39900
O1466       O  0.26638518  0.81642258  0.84933984    -0.39900
C1467       C  0.06177012  0.81232173  0.49995785    -0.12200
C1468       C  0.05582213  0.78292732  0.51848722     0.04800
C1469       C  0.01997652  0.77213900  0.52316776    -0.07500
C1470       C  0.99268531  0.79592144  0.51991215    -0.08200
C1471       C  0.00081213  0.82947651  0.51141402    -0.02800
C1472       C  0.03564410  0.83711513  0.49901956     0.04000
N1473       N  0.04682463  0.87044123  0.48897362     0.66500
H1474       H  0.08880540  0.81955314  0.49337714     0.15400
H1475       H  0.96540924  0.78845268  0.52506336     0.15200
N1476       N  0.01040265  0.73704906  0.52697521     0.74200
O1477       O  0.05785516  0.89071954  0.51150188    -0.39200
O1478       O  0.05884110  0.87399296  0.45955851    -0.39100
O1479       O  0.99277626  0.72825388  0.55260059    -0.39900
O1480       O  0.00769966  0.71906181  0.50063268    -0.39900
C1481       C  0.38353898  0.56642414  0.78248760    -0.12200
C1482       C  0.36123062  0.54184478  0.76661983     0.04800
C1483       C  0.37786685  0.51181544  0.75440865    -0.07500
C1484       C  0.41354860  0.50532177  0.76332058    -0.08200
C1485       C  0.43197818  0.52731202  0.78561057    -0.02800
C1486       C  0.41917367  0.56045574  0.78897331     0.04000
N1487       N  0.44000906  0.58691397  0.80413610     0.66500
H1488       H  0.37353016  0.59157443  0.78868919     0.15400
H1489       H  0.42438310  0.48030914  0.75793870     0.15200
N1490       N  0.35996951  0.48779260  0.73320977     0.74200
O1491       O  0.45456918  0.60852828  0.78511477    -0.39200
O1492       O  0.43420662  0.59494000  0.83446668    -0.39100
O1493       O  0.36703667  0.48788935  0.70213414    -0.39900
O1494       O  0.34090605  0.96244803  0.75957971    -0.39900
C1495       C  0.27812645  0.90956961  0.56112110    -0.12200
C1496       C  0.30609456  0.89555222  0.58008799     0.04800
C1497       C  0.34069688  0.90942625  0.57588077    -0.07500
C1498       C  0.34739440  0.92934274  0.54762308    -0.08200
C1499       C  0.32051030  0.93455387  0.52387313    -0.02800
C1500       C  0.28508577  0.92918887  0.53310321     0.04000
N1501       N  0.25569602  0.93731732  0.00936825     0.66500
H1502       H  0.25078935  0.90167758  0.56539621     0.15400
H1503       H  0.37469244  0.93609175  0.54161303     0.15200
N1504       N  0.36947612  0.90331591  0.59840193     0.74200
O1505       O  0.24498604  0.91527058  0.98839436    -0.39200
O1506       O  0.23470513  0.96070276  0.01833183    -0.39100
O1507       O  0.39457088  0.88439277  0.58859913    -0.39900
O1508       O  0.37586596  0.92536617  0.62090594    -0.39900
C1509       C  0.10131054  0.50491404  0.85554426    -0.12200
C1510       C  0.10558294  0.50317127  0.89023685     0.04800
C1511       C  0.12229720  0.53062340  0.90678505    -0.07500
C1512       C  0.12380095  0.56231176  0.89127652    -0.08200
C1513       C  0.11054026  0.56648303  0.85859070    -0.02800
C1514       C  0.09761517  0.53686971  0.84107248     0.04000
N1515       N  0.08092989  0.53852646  0.80867763     0.66500
H1516       H  0.09012044  0.48318854  0.84214498     0.15400
H1517       H  0.13484524  0.58327450  0.90553994     0.15200
N1518       N  0.13316074  0.52811930  0.94105690     0.74200
O1519       O  0.09797114  0.52841172  0.78310556    -0.39200
O1520       O  0.04736773  0.53802252  0.80752996    -0.39100
O1521       O  0.16597624  0.52568656  0.94724129    -0.39900
O1522       O  0.11275766  0.53936956  0.96376569    -0.39900
C1523       C  0.35095272  0.58337973  0.54859734    -0.12200
C1524       C  0.34872841  0.61879995  0.54926387     0.04800
C1525       C  0.36426768  0.63765154  0.52284557    -0.07500
C1526       C  0.37175827  0.62112176  0.49265629    -0.08200
C1527       C  0.36628444  0.58591223  0.48999400    -0.02800
C1528       C  0.35863158  0.56672197  0.51890932     0.04000
N1529       N  0.35959802  0.53038486  0.51921461     0.66500
H1530       H  0.34570666  0.56799081  0.57042093     0.15400
H1531       H  0.38234217  0.63547057  0.47163031     0.15200
N1532       N  0.37380551  0.67277902  0.52717796     0.74200
O1533       O  0.38771166  0.51619841  0.52917517    -0.39200
O1534       O  0.33016867  0.51247174  0.02444203    -0.39100
O1535       O  0.40293445  0.68015589  0.54130266    -0.39900
O1536       O  0.35119930  0.69591902  0.52243074    -0.39900
C1537       C  0.00858475  0.85155812  0.81632286    -0.12200
C1538       C  0.02905111  0.86127001  0.84430005     0.04800
C1539       C  0.06625458  0.86502520  0.84070216    -0.07500
C1540       C  0.08214690  0.85457351  0.81102700    -0.08200
C1541       C  0.06238506  0.83680810  0.78660273    -0.02800
C1542       C  0.02504357  0.83973360  0.78707682     0.04000
N1543       N  0.00424150  0.83631036  0.75719340     0.66500
H1544       H  0.97978913  0.85285495  0.81716714     0.15400
H1545       H  0.11093802  0.85589876  0.80926811     0.15200
N1546       N  0.08899536  0.87580640  0.86761018     0.74200
O1547       O  0.98088049  0.81314359  0.75560772    -0.39200
O1548       O  0.00079798  0.86222204  0.73882527    -0.39100
O1549       O  0.10457016  0.85328452  0.88460773    -0.39900
O1550       O  0.10255867  0.90526344  0.86638862    -0.39900
C1551       C  0.02036672  0.51334064  0.58201998    -0.12200
C1552       C  0.00188492  0.53357021  0.55910616     0.04800
C1553       C  0.00382168  0.56923913  0.56238316    -0.07500
C1554       C  0.02911270  0.58350049  0.58362525    -0.08200
C1555       C  0.05189612  0.56320336  0.60307679    -0.02800
C1556       C  0.04459096  0.52767370  0.60462374     0.04000
N1557       N  0.05825666  0.50588285  0.63008760     0.66500
H1558       H  0.01673632  0.48591185  0.58194814     0.15400
H1559       H  0.03159309  0.61105835  0.58428560     0.15200
N1560       N  0.48063180  0.59167242  0.54465782     0.74200
O1561       O  0.03916445  0.50075180  0.65575475    -0.39200
O1562       O  0.08027065  0.48321174  0.62153770    -0.39100
O1563       O  0.45435487  0.60391888  0.56036116    -0.39900
O1564       O  0.49267786  0.60762610  0.51959361    -0.39900
C1565       C  0.58490492  0.08478811  0.12083269     0.86600
C1566       C  0.61238604  0.06478598  0.14146160    -0.53700
C1567       C  0.63762576  0.08420906  0.15679321     0.09500
C1568       C  0.62965966  0.12404904  0.15183066     0.20400
C1569       C  0.56662963  0.10867454  0.14684824    -0.54400
C1570       C  0.58822334  0.13070538  0.16290970     0.09600
C1571       C  0.60675723  0.10773352  0.09703131    -0.53900
C1572       C  0.63141946  0.12785641  0.11210620     0.10200
H1573       H  0.61249288  0.03733056  0.14279162     0.14700
H1574       H  0.64854486  0.14122187  0.16513449     0.00400
H1575       H  0.53839679  0.10910978  0.15223857     0.15000
H1576       H  0.60347137  0.10736307  0.06985778     0.14800
C1577       C  0.57197968  0.16346550  0.18213282     0.30100
C1578       C  0.57170910  0.22753224  0.21272477     0.30100
C1579       C  0.59190985  0.19165931  0.16528307    -0.06100
C1580       C  0.53270417  0.18129541  0.18482870    -0.06900
C1581       C  0.58329566  0.16535769  0.21918379    -0.06800
C1582       C  0.59296545  0.22323485  0.18072394    -0.06100
C1583       C  0.53291088  0.21419274  0.20104120    -0.06900
C1584       C  0.58352351  0.19758383  0.23435966    -0.06800
C1585       C  0.59720445  0.24650084  0.15560316    -0.32200
N1586       N  0.59928195  0.23015473  0.12592017     0.14300
C1587       C  0.59287539  0.19721866  0.13141449    -0.32200
H1588       H  0.58350932  0.17938189  0.11260871     0.16300
C1589       C  0.99677195  0.22472487  0.20308333    -0.31100
N1590       N  0.97397527  0.20106108  0.18858939     0.13100
C1591       C  0.99586820  0.17482805  0.17731038    -0.31100
C1592       C  0.57885896  0.19227872  0.26839784    -0.31400
N1593       N  0.57872809  0.15850017  0.27532419     0.13600
H1594       H  0.57369507  0.21201117  0.28684685     0.16200
C1595       C  0.57767320  0.14242970  0.24505383    -0.31400
H1596       H  0.57456694  0.11508253  0.24203812     0.16200
H1597       H  0.98590999  0.15190356  0.16524655     0.16200
H1598       H  0.59173852  0.27288768  0.15862042     0.16300
H1599       H  0.98790784  0.24826809  0.21456640     0.16200
C1600       C  0.58337705  0.31358272  0.26412317     0.86600
C1601       C  0.60508955  0.33291424  0.23748087    -0.53700
C1602       C  0.62842281  0.31378614  0.21964079     0.09500
C1603       C  0.62569802  0.27437058  0.23053122     0.20400
C1604       C  0.56346299  0.28417167  0.24581242    -0.54400
C1605       C  0.58481525  0.26264920  0.22839080     0.09600
C1606       C  0.61113213  0.29484728  0.28624243    -0.53900
C1607       C  0.63433821  0.27485390  0.26938874     0.10200
H1608       H  0.60369027  0.36035531  0.23483902     0.14700
H1609       H  0.64277481  0.25703943  0.21564419     0.00400
H1610       H  0.53567752  0.27813937  0.24916719     0.15000
H1611       H  0.61195639  0.29680535  0.31353100     0.14800
C1612       C  0.67135282  0.06792941  0.17408933     0.30100
C1613       C  0.73254346  0.05113897  0.20943135     0.30100
C1614       C  0.67478119  0.08201205  0.20870954    -0.06100
C1615       C  0.67789620  0.02680088  0.18115973    -0.06900
C1616       C  0.70719634  0.08066810  0.15915853    -0.06800
C1617       C  0.70345639  0.07140702  0.22677503    -0.06100
C1618       C  0.70961263  0.01944267  0.19955753    -0.06900
C1619       C  0.73766296  0.06882666  0.17487483    -0.06800
C1620       C  0.69741839  0.08034825  0.25912597    -0.32200
N1621       N  0.66937668  0.10136226  0.25989265     0.14300
C1622       C  0.65464519  0.10198793  0.22905780    -0.32200
H1623       H  0.63060933  0.11319897  0.22243035     0.16300
C1624       C  0.70902616  0.48375719  0.20618724    -0.31100
N1625       N  0.67958364  0.46753687  0.19369721     0.13100
C1626       C  0.66107656  0.99379621  0.17823091    -0.31100
C1627       C  0.76621081  0.08624666  0.16110111    -0.31400
N1628       N  0.75469989  0.11293568  0.14234119     0.13600
H1629       H  0.79370837  0.07962597  0.16511669     0.16200
C1630       C  0.71860845  0.11128301  0.14465965    -0.31400
H1631       H  0.70193750  0.13285115  0.14085452     0.16200
H1632       H  0.63578650  0.48688104  0.16379521     0.16200
H1633       H  0.71144787  0.07020481  0.28048723     0.16300
H1634       H  0.73043156  0.47104577  0.21918640     0.16200
C1635       C  0.82279658  0.13617106  0.07402787     0.86600
C1636       C  0.84234608  0.16196291  0.09641655    -0.53700
C1637       C  0.82116186  0.18056343  0.11667511     0.09500
C1638       C  0.77918928  0.17114451  0.11058033     0.20400
C1639       C  0.79986850  0.11432362  0.09820943    -0.54400
C1640       C  0.77663173  0.13176512  0.11767535     0.09600
C1641       C  0.79510160  0.15547511  0.05298175    -0.53900
C1642       C  0.77114762  0.17340497  0.07087051     0.10200
H1643       H  0.87108380  0.16230488  0.09904674     0.14700
H1644       H  0.76059720  0.18622392  0.12642399     0.00400
H1645       H  0.80014925  0.08690848  0.09998453     0.15000
H1646       H  0.79331254  0.15315549  0.02579466     0.14800
C1647       C  0.62083524  0.10142544  0.34110221     0.86600
C1648       C  0.58955920  0.12077916  0.32430469    -0.53700
C1649       C  0.60058692  0.14485944  0.30174772     0.09500
C1650       C  0.64092651  0.14704384  0.29811941     0.20400
C1651       C  0.64349005  0.08802767  0.31239394    -0.54400
C1652       C  0.65201990  0.11121220  0.28963904     0.09600
C1653       C  0.64547467  0.12967041  0.35689101    -0.53900
C1654       C  0.65649725  0.15360705  0.33380344     0.10200
H1655       H  0.56178671  0.11375399  0.32739959     0.14700
H1656       H  0.64978104  0.16457172  0.27795293     0.00400
H1657       H  0.65175232  0.06163959  0.30939380     0.15000
H1658       H  0.65679025  0.12855658  0.38183863     0.14800
C1659       C  0.83646567  0.22568433  0.21391126     0.30100
C1660       C  0.83724601  0.19782828  0.14958554     0.30100
C1661       C  0.82408106  0.24867497  0.18512508    -0.06100
C1662       C  0.87584011  0.21536659  0.20038039    -0.06900
C1663       C  0.81652422  0.19305545  0.20815114    -0.06800
C1664       C  0.82464792  0.23448372  0.15285105    -0.06100
C1665       C  0.87631458  0.20064055  0.16713275    -0.06900
C1666       C  0.81802177  0.17871420  0.17642789    -0.06800
C1667       C  0.82938820  0.26115267  0.13090484    -0.32200
N1668       N  0.82796871  0.29123590  0.14750074     0.14300
C1669       C  0.82796551  0.28346879  0.18073980    -0.32200
H1670       H  0.83231867  0.30187378  0.20072601     0.16300
C1671       C  0.91293394  0.19322343  0.16034618    -0.31100
N1672       N  0.93488486  0.20321837  0.18675081     0.13100
C1673       C  0.91216513  0.21684510  0.21083684    -0.31100
C1674       C  0.81857767  0.14416063  0.18066495    -0.31400
N1675       N  0.81285721  0.13760424  0.21295487     0.13600
H1676       H  0.82770046  0.12558217  0.16251369     0.16200
C1677       C  0.81419359  0.16678332  0.23013761    -0.31400
H1678       H  0.82156557  0.16843906  0.25589078     0.16200
H1679       H  0.92115064  0.22721680  0.23467044     0.16200
H1680       H  0.83644865  0.25899081  0.10465923     0.16300
H1681       H  0.92271601  0.18196071  0.13721316     0.16200
C1682       C  0.79495270  0.36689077  0.09675241     0.86600
C1683       C  0.76442074  0.37517017  0.12112701    -0.53700
C1684       C  0.74951501  0.34767907  0.13597794     0.09500
C1685       C  0.76790750  0.31377201  0.12593385     0.20400
C1686       C  0.82238607  0.34684812  0.11816179    -0.54400
C1687       C  0.80771026  0.31883488  0.13344624     0.09600
C1688       C  0.77979951  0.33937610  0.07219494    -0.53900
C1689       C  0.76602223  0.31175669  0.08780330     0.10200
H1690       H  0.75433827  0.40060158  0.12373384     0.14700
H1691       H  0.75630565  0.29060786  0.13764093     0.00400
H1692       H  0.85058057  0.35195865  0.11952338     0.15000
H1693       H  0.78033528  0.34149570  0.04494035     0.14800
C1694       C  0.82439152  0.05692317  0.25962229     0.86600
C1695       C  0.79320218  0.03708493  0.24165420    -0.53700
C1696       C  0.76561922  0.05823091  0.23238238     0.09500
C1697       C  0.77238345  0.09648357  0.24332181     0.20400
C1698       C  0.83413146  0.08483276  0.23442111    -0.54400
C1699       C  0.80732837  0.10552403  0.22738220     0.09600
C1700       C  0.80637072  0.07610713  0.29008606    -0.53900
C1701       C  0.77973143  0.09776609  0.28128603     0.10200
H1702       H  0.79345990  0.01025370  0.23519685     0.14700
H1703       H  0.75199138  0.11529838  0.23569934     0.00400
H1704       H  0.86092585  0.09002159  0.22528109     0.15000
H1705       H  0.81637655  0.07511403  0.31568999     0.14800
C1706       C  0.65854031  0.33106883  0.19734236     0.30100
C1707       C  0.71649813  0.34774842  0.15826655     0.30100
C1708       C  0.65549033  0.32244302  0.15967612    -0.06100
C1709       C  0.66815875  0.37211483  0.19468677    -0.06900
C1710       C  0.69489719  0.31458517  0.20637666    -0.06800
C1711       C  0.68535581  0.33003166  0.14024871    -0.06100
C1712       C  0.69831125  0.37906434  0.17414526    -0.06900
C1713       C  0.72345882  0.32611360  0.18869791    -0.06800
C1714       C  0.67420507  0.33192888  0.10730920    -0.32200
N1715       N  0.63915727  0.32419056  0.10497894     0.14300
C1716       C  0.62726718  0.32246557  0.13723257    -0.32200
H1717       H  0.59940168  0.32333200  0.14385063     0.16300
C1718       C  0.70368279  0.41397823  0.17196904    -0.31100
N1719       N  0.67798700  0.43091144  0.18883196     0.13100
C1720       C  0.65636625  0.40606732  0.20345009    -0.31100
C1721       C  0.75337384  0.31163073  0.20142914    -0.31400
N1722       N  0.74468754  0.28644110  0.22302802     0.13600
H1723       H  0.77931169  0.32234150  0.19781734     0.16200
C1724       C  0.70861612  0.28711176  0.22441176    -0.31400
H1725       H  0.69386966  0.26694685  0.23501969     0.16200
H1726       H  0.63379061  0.41194240  0.21931899     0.16200
H1727       H  0.69023619  0.34086910  0.08660714     0.16300
H1728       H  0.72525975  0.42703310  0.15970562     0.16200
C1729       C  0.58316395  0.27149151  0.04257116     0.86600
C1730       C  0.57466090  0.24911867  0.07302997    -0.53700
C1731       C  0.60250449  0.24552030  0.09391053     0.09500
C1732       C  0.63666460  0.26270576  0.08268862     0.20400
C1733       C  0.59827317  0.30503739  0.05922276    -0.54400
C1734       C  0.62650222  0.29998871  0.08007889     0.09600
C1735       C  0.61570526  0.25422954  0.02504878    -0.53900
C1736       C  0.64403725  0.24960361  0.04616958     0.10200
H1737       H  0.54913506  0.23896301  0.07998198     0.14700
H1738       H  0.65825626  0.25840132  0.10122326     0.00400
H1739       H  0.58582955  0.32982488  0.05688027     0.15000
H1740       H  0.61544372  0.24510227  0.99920459     0.14800
C1741       C  0.81694475  0.28588325  0.28906086     0.86600
C1742       C  0.84009131  0.26153129  0.26740715    -0.53700
C1743       C  0.82155306  0.23848762  0.24925223     0.09500
C1744       C  0.77987776  0.23892391  0.25974846     0.20400
C1745       C  0.78797548  0.29899343  0.26558964    -0.54400
C1746       C  0.76849848  0.27541076  0.24968783     0.09600
C1747       C  0.79790477  0.26279188  0.31487704    -0.53900
C1748       C  0.77671066  0.23844915  0.30073403     0.10200
H1749       H  0.86855223  0.26403184  0.26376428     0.14700
H1750       H  0.76338554  0.21915832  0.24705824     0.00400
H1751       H  0.78388753  0.32597171  0.26064828     0.15000
H1752       H  0.79926150  0.26651563  0.34187748     0.14800
C1753       C  0.73830428  0.19091645  0.05350424     0.30100
C1754       C  0.67763645  0.22799861  0.04047642     0.30100
C1755       C  0.73748832  0.22741227  0.06653202    -0.06100
C1756       C  0.72988334  0.19746270  0.01371408    -0.06900
C1757       C  0.70246180  0.17577289  0.06628999    -0.06800
C1758       C  0.70777533  0.24618224  0.05883845    -0.06100
C1759       C  0.69805992  0.21628887  0.00784079    -0.06900
C1760       C  0.67268132  0.19462500  0.05983409    -0.06800
C1761       C  0.71762766  0.27999859  0.05978261    -0.32200
N1762       N  0.75147960  0.28253293  0.07071548     0.14300
C1763       C  0.76416581  0.25046074  0.07332205    -0.32200
H1764       H  0.79142792  0.24392140  0.07718578     0.16300
C1765       C  0.69760538  0.22193506  0.47290867    -0.31100
N1766       N  0.72634696  0.20849646  0.45631033     0.13100
C1767       C  0.74676249  0.19276656  0.48082560    -0.31100
C1768       C  0.64384427  0.17787994  0.07400652    -0.31400
N1769       N  0.65481155  0.15045765  0.09187956     0.13600
H1770       H  0.61656268  0.18449823  0.06948841     0.16200
C1771       C  0.69008702  0.14703501  0.08329862    -0.31400
H1772       H  0.70542400  0.12419085  0.08619889     0.16200
H1773       H  0.77095009  0.17896270  0.47536901     0.16200
H1774       H  0.70168629  0.30095076  0.05123482     0.16300
H1775       H  0.67623331  0.23534542  0.46059095     0.16200
C1776       C  0.74756385  0.21776944  0.32179110     0.30100
C1777       C  0.68946314  0.17671775  0.33581254     0.30100
C1778       C  0.74947244  0.18027312  0.30981575    -0.06100
C1779       C  0.73892004  0.21186642  0.36211598    -0.06900
C1780       C  0.71049096  0.23022089  0.30954691    -0.06800
C1781       C  0.72024235  0.16003371  0.31657576    -0.06100
C1782       C  0.70861096  0.19045611  0.36778308    -0.06900
C1783       C  0.68210828  0.20951042  0.31662773    -0.06800
C1784       C  0.73121496  0.12645273  0.31373112    -0.32200
N1785       N  0.76540701  0.12488017  0.30297262     0.14300
C1786       C  0.77737470  0.15773746  0.30385338    -0.32200
H1787       H  0.80511861  0.16463866  0.30469056     0.16300
C1788       C  0.70287823  0.18688590  0.40215564    -0.31100
N1789       N  0.72810716  0.20415512  0.41993854     0.13100
C1790       C  0.74995457  0.21993075  0.39609813    -0.31100
C1791       C  0.65172052  0.22481740  0.30442347    -0.31400
N1792       N  0.66015767  0.25358236  0.28764188     0.13600
H1793       H  0.62524437  0.21602750  0.30910235     0.16200
C1794       C  0.69568024  0.25891222  0.29421787    -0.31400
H1795       H  0.70987361  0.28223396  0.28891603     0.16200
H1796       H  0.77187471  0.23668530  0.40259448     0.16200
H1797       H  0.71601001  0.10469612  0.32193466     0.16300
H1798       H  0.68108276  0.17311209  0.41362752     0.16200
N1799       N  0.98088490  0.00739079  0.47956425    -0.06000
N1800       N  0.98029474  0.02990285  0.50429097    -0.58200
N1801       N  0.52794628  0.46695538  0.42441380    -0.05700
N1802       N  0.56255338  0.46365839  0.41954010    -0.60300
N1803       N  0.01577028  0.99312446  0.41258017    -0.05300
N1804       N  0.04075955  0.01161100  0.39898049    -0.58100
N1805       N  0.48866900  0.48149505  0.48959619    -0.05000
N1806       N  0.49310938  0.48378435  0.52233004    -0.60600
C1807       C  0.49114954  0.01263715  0.03086773     0.96100
C1808       C  0.57017202  0.99283497  0.40309108     0.95900
N1809       N  0.96805401  0.38142935  0.40772297    -0.06200
N1810       N  0.97492106  0.36502048  0.37948809    -0.58700
N1811       N  0.46352303  0.40540247  0.49036603    -0.04400
N1812       N  0.48299086  0.38816246  0.51162761    -0.60000
N1813       N  0.93889332  0.38541426  0.47712893    -0.06300
N1814       N  0.94416811  0.35372550  0.48707902    -0.59000
N1815       N  0.49709461  0.39594680  0.41961919    -0.04000
N1816       N  0.52414579  0.39005276  0.39937863    -0.60100
Mn1817     Mn  0.49468151  0.43711202  0.45687627     1.18400
C1818       C  0.51016830  0.37041739  0.37483079     0.98200
C1819       C  0.47182013  0.35409334  0.00723133     0.98900
N1820       N  0.94592593  0.01261097  0.37440818    -0.06300
N1821       N  0.96124968  0.02068454  0.34542862    -0.62600
N1822       N  0.88575314  0.52350265  0.43332950    -0.05100
N1823       N  0.86006113  0.54186513  0.44665003    -0.63300
N1824       N  0.91586101  0.03344087  0.44218567    -0.05800
N1825       N  0.91210096  0.06150022  0.45964332    -0.62900
N1826       N  0.91652574  0.50201756  0.36526618    -0.04700
N1827       N  0.91034850  0.99298153  0.33654651    -0.63500
Mn1828     Mn  0.96526673  0.01295426  0.42667361     1.10700
C1829       C  0.93830861  0.00813093  0.32178692     0.99400
C1830       C  0.87586979  0.06334214  0.96411441     0.99500
N1831       N  0.86698661  0.41805214  0.44862462    -0.05800
N1832       N  0.84978404  0.40682414  0.47508889    -0.61200
N1833       N  0.88220144  0.43540339  0.36958464    -0.05100
N1834       N  0.87212212  0.43555064  0.33792663    -0.61100
N1835       N  0.89736944  0.40669845  0.37725708    -0.06400
N1836       N  0.89851532  0.38675328  0.35067285    -0.60700
N1837       N  0.85571949  0.44879048  0.44092874    -0.05400
N1838       N  0.83124338  0.45918197  0.46248106    -0.57900
Mn1839     Mn  0.91664445  0.39661559  0.42753977     1.20200
Mn1840     Mn  0.88322686  0.47807392  0.40250132     1.10100
Cl1841     Cl  0.93993519  0.45707518  0.42810195    -0.85900
C1842       C  0.82835047  0.43099154  0.98324060     0.96400
C1843       C  0.88185850  0.40470039  0.32638815     0.96200
C1844       C  0.86131627  0.33123494  0.27920528    -0.12200
C1845       C  0.83474760  0.31801749  0.30068153     0.04800
C1846       C  0.81592838  0.34130218  0.32161051    -0.07500
C1847       C  0.82679764  0.37518444  0.32308689    -0.08200
C1848       C  0.85756067  0.38554040  0.30595176    -0.02800
C1849       C  0.87240090  0.36455716  0.28144702     0.04000
N1850       N  0.90145125  0.37537469  0.26095000     0.66500
H1851       H  0.87307585  0.31673682  0.25897860     0.15400
H1852       H  0.81445137  0.39197945  0.34144906     0.15200
N1853       N  0.78546225  0.33118409  0.34085591     0.74200
O1854       O  0.93249016  0.36820477  0.27042051    -0.39200
O1855       O  0.89592114  0.37994743  0.22997367    -0.39100
O1856       O  0.78912647  0.32300569  0.37131211    -0.39900
O1857       O  0.75521669  0.32889587  0.32719388    -0.39900
C1858       C  0.55822078  0.30560631  0.99729377    -0.12200
C1859       C  0.55162119  0.27923935  0.01970229     0.04800
C1860       C  0.51526437  0.27098211  0.02669661    -0.07500
C1861       C  0.48886674  0.29499489  0.01988678    -0.08200
C1862       C  0.49801063  0.32634049  0.00609009    -0.02800
C1863       C  0.53275787  0.33058271  0.99238967     0.04000
N1864       N  0.54440377  0.36086566  0.97591438     0.66500
H1865       H  0.58533945  0.31090989  0.98938547     0.15400
H1866       H  0.46150430  0.28976472  0.02694769     0.15200
N1867       N  0.50376288  0.23797607  0.03731650     0.74200
O1868       O  0.55666104  0.38481512  0.99391049    -0.39200
O1869       O  0.55639436  0.35762434  0.94641663    -0.39100
O1870       O  0.48744088  0.23551958  0.06502221    -0.39900
O1871       O  0.49745678  0.21590286  0.01481744    -0.39900
C1872       C  0.88342077  0.06603032  0.28537979    -0.12200
C1873       C  0.86040544  0.04216485  0.26953968     0.04800
C1874       C  0.87537536  0.01077712  0.25892581    -0.07500
C1875       C  0.91069810  0.00322046  0.26791815    -0.08200
C1876       C  0.92971554  0.02473285  0.29017540    -0.02800
C1877       C  0.91810759  0.05831554  0.29391266     0.04000
N1878       N  0.93832812  0.08319491  0.31215650     0.66500
H1879       H  0.87438839  0.09164246  0.29108021     0.15400
H1880       H  0.92023810  0.97753655  0.26345041     0.15200
N1881       N  0.85555250  0.98556106  0.24082013     0.74200
O1882       O  0.95551401  0.10517461  0.29565391    -0.39200
O1883       O  0.92966314  0.08999298  0.34217331    -0.39100
O1884       O  0.86243836  0.98100066  0.21001559    -0.39900
O1885       O  0.84833217  0.46229786  0.24907250    -0.39900
C1886       C  0.77635610  0.41190002  0.05759113    -0.12200
C1887       C  0.80465187  0.39849842  0.07670983     0.04800
C1888       C  0.83921121  0.41191046  0.07111038    -0.07500
C1889       C  0.84535118  0.43077196  0.04198727    -0.08200
C1890       C  0.81813052  0.43496514  0.01834143    -0.02800
C1891       C  0.78284498  0.42934204  0.02799273     0.04000
N1892       N  0.75287661  0.43613384  0.50636493     0.66500
H1893       H  0.74912914  0.40406571  0.06250731     0.15400
H1894       H  0.87251342  0.43749622  0.03540689     0.15200
N1895       N  0.86865134  0.40591071  0.09285560     0.74200
O1896       O  0.74149784  0.41220140  0.48785460    -0.39200
O1897       O  0.73205355  0.46013813  0.51393305    -0.39100
O1898       O  0.89255014  0.38562275  0.08304983    -0.39900
O1899       O  0.87700024  0.42902794  0.11368423    -0.39900
C1900       C  0.59801200  0.00841225  0.35404318    -0.12200
C1901       C  0.60328575  0.00432288  0.38841778     0.04800
C1902       C  0.62064185  0.03067737  0.40630586    -0.07500
C1903       C  0.62419193  0.06295605  0.39198098    -0.08200
C1904       C  0.61048261  0.06933475  0.35986932    -0.02800
C1905       C  0.59539820  0.04128058  0.34143595     0.04000
N1906       N  0.57773268  0.04546019  0.30976878     0.66500
H1907       H  0.58573656  0.98783986  0.33969047     0.15400
H1908       H  0.63717553  0.08273103  0.40651462     0.15200
N1909       N  0.63163156  0.02609242  0.44029969     0.74200
O1910       O  0.59357011  0.03662312  0.28307595    -0.39200
O1911       O  0.54415608  0.04632237  0.30964562    -0.39100
O1912       O  0.66436562  0.02225622  0.44612382    -0.39900
O1913       O  0.61172695  0.03669933  0.46369408    -0.39900
C1914       C  0.84815197  0.08162199  0.05182476    -0.12200
C1915       C  0.84758396  0.11716242  0.05138958     0.04800
C1916       C  0.86423283  0.13440067  0.02459487    -0.07500
C1917       C  0.87141880  0.11648392  0.99512895    -0.08200
C1918       C  0.86387177  0.08150984  0.99334028    -0.02800
C1919       C  0.85433281  0.06368121  0.02257265     0.04000
N1920       N  0.85138381  0.02743459  0.02360424     0.66500
H1921       H  0.84245860  0.06709191  0.07410552     0.15400
H1922       H  0.88335812  0.12958444  0.97394380     0.15200
N1923       N  0.87551745  0.16915471  0.02797861     0.74200
O1924       O  0.87678866  0.01090310  0.03614695    -0.39200
O1925       O  0.81787997  0.01524661  0.52351489    -0.39100
O1926       O  0.90478303  0.17561070  0.04227933    -0.39900
O1927       O  0.85414295  0.19313936  0.02234363    -0.39900
C1928       C  0.50801010  0.35015569  0.31622762    -0.12200
C1929       C  0.52827633  0.36335676  0.34292936     0.04800
C1930       C  0.56496404  0.36964350  0.33793116    -0.07500
C1931       C  0.58107756  0.35766759  0.30881682    -0.08200
C1932       C  0.56188181  0.33782945  0.28555799    -0.02800
C1933       C  0.52441745  0.33834832  0.28701176     0.04000
N1934       N  0.50288570  0.33208982  0.25799939     0.66500
H1935       H  0.47926338  0.34896566  0.31792788     0.15400
H1936       H  0.60968668  0.36053580  0.30628271     0.15200
N1937       N  0.58692224  0.38643691  0.36231289     0.74200
O1938       O  0.47968408  0.30873505  0.25892126    -0.39200
O1939       O  0.49908265  0.35598593  0.23720950    -0.39100
O1940       O  0.60691616  0.36853730  0.38049081    -0.39900
O1941       O  0.59551070  0.41708845  0.35718389    -0.39900
C1942       C  0.54765516  0.01750099  0.06050790    -0.12200
C1943       C  0.51273912  0.02904077  0.05655833     0.04800
C1944       C  0.50141219  0.05834586  0.07358696    -0.07500
C1945       C  0.52477304  0.07508360  0.09497408    -0.08200
C1946       C  0.55965478  0.06317890  0.10023920    -0.02800
C1947       C  0.57159642  0.03493504  0.08088348     0.04000
N1948       N  0.60833899  0.02581130  0.07817402     0.66500
H1949       H  0.55745898  0.99627271  0.04559624     0.15400
H1950       H  0.51558663  0.09898947  0.10521644     0.15200
N1951       N  0.96699743  0.07267820  0.06838569     0.74200
O1952       O  0.61859479  0.99869605  0.09195783    -0.39200
O1953       O  0.62590678  0.03701685  0.05345392    -0.39100
O1954       O  0.94412847  0.06977924  0.09150024    -0.39900
O1955       O  0.96401775  0.09686154  0.04781046    -0.39900
C1956       C  0.58501260  0.08459484  0.62064442     0.86600
C1957       C  0.61234766  0.06494954  0.64171721    -0.53700
C1958       C  0.63765356  0.08454157  0.65666686     0.09500
C1959       C  0.62975672  0.12435054  0.65108222     0.20400
C1960       C  0.56673187  0.10896437  0.64618033    -0.54400
C1961       C  0.58831390  0.13132185  0.66177605     0.09600
C1962       C  0.60704469  0.10708962  0.59648374    -0.53900
C1963       C  0.63164643  0.12754101  0.61135039     0.10200
H1964       H  0.61223104  0.03757029  0.64380854     0.14700
H1965       H  0.64856150  0.14172715  0.66422367     0.00400
H1966       H  0.53846640  0.10950446  0.65146475     0.15000
H1967       H  0.60388522  0.10619201  0.56930829     0.14800
C1968       C  0.57212135  0.16437081  0.68040019     0.30100
C1969       C  0.57197563  0.22859464  0.71032119     0.30100
C1970       C  0.59114867  0.19261264  0.66251415    -0.06100
C1971       C  0.53268722  0.18177459  0.68391557    -0.06900
C1972       C  0.58426538  0.16669892  0.71711122    -0.06800
C1973       C  0.59195576  0.22449080  0.67754701    -0.06100
C1974       C  0.53297928  0.21480838  0.69986853    -0.06900
C1975       C  0.58470995  0.19905013  0.73189493    -0.06800
C1976       C  0.59363394  0.24747757  0.65184712    -0.32200
N1977       N  0.59487402  0.23081976  0.62226277     0.14300
C1978       C  0.59069744  0.19765400  0.62843556    -0.32200
H1979       H  0.58228479  0.17896916  0.61002571     0.16300
C1980       C  0.99686620  0.22526147  0.70233025    -0.31100
N1981       N  0.97397794  0.20138122  0.68836622     0.13100
C1982       C  0.99578166  0.17512943  0.67698039    -0.31100
C1983       C  0.57998392  0.19420374  0.76599956    -0.31400
N1984       N  0.57925832  0.16056095  0.77334147     0.13600
H1985       H  0.57457363  0.21418385  0.78410678     0.16200
C1986       C  0.57817443  0.14419402  0.74328170    -0.31400
H1987       H  0.57428237  0.11681419  0.74057984     0.16200
H1988       H  0.98573505  0.15215282  0.66508038     0.16200
H1989       H  0.58689153  0.27367114  0.65460659     0.16300
H1990       H  0.98808773  0.24896507  0.71353818     0.16200
C1991       C  0.58379956  0.31399984  0.76236151     0.86600
C1992       C  0.60591482  0.33343564  0.73616451    -0.53700
C1993       C  0.62934799  0.31431881  0.71849468     0.09500
C1994       C  0.62629119  0.27484264  0.72885799     0.20400
C1995       C  0.56391594  0.28497825  0.74351678    -0.54400
C1996       C  0.58530393  0.26353371  0.72607267     0.09600
C1997       C  0.61113619  0.29487829  0.78460882    -0.53900
C1998       C  0.63450314  0.27498684  0.76785414     0.10200
H1999       H  0.60469816  0.36090261  0.73372268     0.14700
H2000       H  0.64347755  0.25758635  0.71395409     0.00400
H2001       H  0.53609877  0.27900327  0.74659539     0.15000
H2002       H  0.61168006  0.29665555  0.81191615     0.14800
C2003       C  0.67127827  0.06828710  0.67416719     0.30100
C2004       C  0.73219698  0.05147779  0.70997815     0.30100
C2005       C  0.67435312  0.08210687  0.70888823    -0.06100
C2006       C  0.67795100  0.02712138  0.68109221    -0.06900
C2007       C  0.70720664  0.08122571  0.65965730    -0.06800
C2008       C  0.70281460  0.07145618  0.72721558    -0.06100
C2009       C  0.70954179  0.01979819  0.69971410    -0.06900
C2010       C  0.73752130  0.06939648  0.67560643    -0.06800
C2011       C  0.69648630  0.08041361  0.75952465    -0.32200
N2012       N  0.66856921  0.10149687  0.75994549     0.14300
C2013       C  0.65402028  0.10221557  0.72894008    -0.32200
H2014       H  0.63117724  0.11321128  0.72217135     0.16300
C2015       C  0.70920042  0.48408384  0.70530102    -0.31100
N2016       N  0.67979455  0.46802072  0.69256157     0.13100
C2017       C  0.66123305  0.99408261  0.67808415    -0.31100
C2018       C  0.76613995  0.08678657  0.66206356    -0.31400
N2019       N  0.75478877  0.11344816  0.64319332     0.13600
H2020       H  0.79358794  0.08004396  0.66615857     0.16200
C2021       C  0.71868959  0.11180548  0.64515072    -0.31400
H2022       H  0.70204648  0.13328184  0.64082399     0.16200
H2023       H  0.63620245  0.48762266  0.66260190     0.16200
H2024       H  0.71046153  0.07041057  0.78105747     0.16300
H2025       H  0.73056594  0.47122321  0.71821352     0.16200
C2026       C  0.82343278  0.13554006  0.57518085     0.86600
C2027       C  0.84285242  0.16154636  0.59741726    -0.53700
C2028       C  0.82155200  0.18056426  0.61716945     0.09500
C2029       C  0.77963999  0.17114140  0.61093385     0.20400
C2030       C  0.80025828  0.11412250  0.59946194    -0.54400
C2031       C  0.77690565  0.13189208  0.61846401     0.09600
C2032       C  0.79600134  0.15468186  0.55367146    -0.53900
C2033       C  0.77195782  0.17288849  0.57119276     0.10200
H2034       H  0.87153908  0.16168675  0.60044009     0.14700
H2035       H  0.76096217  0.18646367  0.62645524     0.00400
H2036       H  0.80052653  0.08677190  0.60179573     0.15000
H2037       H  0.79444887  0.15204689  0.52649398     0.14800
C2038       C  0.61871643  0.10338309  0.84039799     0.86600
C2039       C  0.58827693  0.12334731  0.82295369    -0.53700
C2040       C  0.60032183  0.14684212  0.80029100     0.09500
C2041       C  0.64075618  0.14806658  0.79734887     0.20400
C2042       C  0.64160703  0.08919328  0.81215956    -0.54400
C2043       C  0.65114995  0.11199427  0.78940663     0.09600
C2044       C  0.64371772  0.13119297  0.85640712    -0.53900
C2045       C  0.65577574  0.15461402  0.83325055     0.10200
H2046       H  0.56026821  0.11711613  0.82573706     0.14700
H2047       H  0.65042502  0.16516143  0.77713985     0.00400
H2048       H  0.64908832  0.06257169  0.80934257     0.15000
H2049       H  0.65423356  0.13023393  0.88167744     0.14800
C2050       C  0.83644961  0.22592161  0.71423640     0.30100
C2051       C  0.83739275  0.19801667  0.65001222     0.30100
C2052       C  0.82430129  0.24901246  0.68542691    -0.06100
C2053       C  0.87586216  0.21541236  0.70080256    -0.06900
C2054       C  0.81616316  0.19352911  0.70838963    -0.06800
C2055       C  0.82503023  0.23480521  0.65312942    -0.06100
C2056       C  0.87632609  0.20067723  0.66758079    -0.06900
C2057       C  0.81798743  0.17903928  0.67680320    -0.06800
C2058       C  0.83055026  0.26145769  0.63128426    -0.32200
N2059       N  0.82926916  0.29157524  0.64784570     0.14300
C2060       C  0.82864182  0.28376944  0.68107809    -0.32200
H2061       H  0.83316188  0.30208287  0.70111087     0.16300
C2062       C  0.91286749  0.19339898  0.66056087    -0.31100
N2063       N  0.93489343  0.20346394  0.68683064     0.13100
C2064       C  0.91227232  0.21705392  0.71104228    -0.31100
C2065       C  0.81834516  0.14451885  0.68129982    -0.31400
N2066       N  0.81156833  0.13818573  0.71348898     0.13600
H2067       H  0.82787382  0.12580013  0.66350152     0.16200
C2068       C  0.81283313  0.16745116  0.73042773    -0.31400
H2069       H  0.81946764  0.16928212  0.75678812     0.16200
H2070       H  0.92139369  0.22757511  0.73476656     0.16200
H2071       H  0.83776672  0.25923125  0.60506208     0.16300
H2072       H  0.92257015  0.18226787  0.63733708     0.16200
C2073       C  0.79584878  0.36661679  0.59640599     0.86600
C2074       C  0.76565279  0.37521233  0.62099102    -0.53700
C2075       C  0.75090916  0.34793635  0.63622212     0.09500
C2076       C  0.76915641  0.31389055  0.62651908     0.20400
C2077       C  0.82355715  0.34686148  0.61778049    -0.54400
C2078       C  0.80899945  0.31907204  0.63363462     0.09600
C2079       C  0.78046475  0.33875560  0.57233235    -0.53900
C2080       C  0.76688396  0.31130563  0.58840783     0.10200
H2081       H  0.75556834  0.40066781  0.62344148     0.14700
H2082       H  0.75764736  0.29093863  0.63870741     0.00400
H2083       H  0.85179303  0.35196966  0.61863425     0.15000
H2084       H  0.78070697  0.34053897  0.54504982     0.14800
C2085       C  0.82398492  0.05750827  0.76005369     0.86600
C2086       C  0.79284099  0.03757593  0.74214543    -0.53700
C2087       C  0.76505312  0.05858802  0.73316408     0.09500
C2088       C  0.77159779  0.09683258  0.74425098     0.20400
C2089       C  0.83335628  0.08557299  0.73489714    -0.54400
C2090       C  0.80639148  0.10616570  0.72816413     0.09600
C2091       C  0.80605902  0.07648561  0.79070563    -0.53900
C2092       C  0.77916902  0.09799350  0.78215370     0.10200
H2093       H  0.79332133  0.01082915  0.73536878     0.14700
H2094       H  0.75104840  0.11556458  0.73681573     0.00400
H2095       H  0.86002501  0.09088622  0.72549498     0.15000
H2096       H  0.81631828  0.07551935  0.81621993     0.14800
C2097       C  0.65962695  0.33156299  0.69664254     0.30100
C2098       C  0.71781295  0.34825227  0.65819693     0.30100
C2099       C  0.65737937  0.32185271  0.65930357    -0.06100
C2100       C  0.66853922  0.37267507  0.69328815    -0.06900
C2101       C  0.69604671  0.31596504  0.70673176    -0.06800
C2102       C  0.68735378  0.32949684  0.64013819    -0.06100
C2103       C  0.69879819  0.37966330  0.67293835    -0.06900
C2104       C  0.72477189  0.32769585  0.68938988    -0.06800
C2105       C  0.67656578  0.33071831  0.60704480    -0.32200
N2106       N  0.64163609  0.32266362  0.60453508     0.14300
C2107       C  0.62943732  0.32104867  0.63665256    -0.32200
H2108       H  0.60162200  0.32298801  0.64305833     0.16300
C2109       C  0.70398212  0.41459051  0.67061295    -0.31100
N2110       N  0.67814974  0.43145768  0.68737345     0.13100
C2111       C  0.65661173  0.40657313  0.70199970    -0.31100
C2112       C  0.75464580  0.31340291  0.70246986    -0.31400
N2113       N  0.74574490  0.28803781  0.72379671     0.13600
H2114       H  0.78071559  0.32385526  0.69879773     0.16200
C2115       C  0.70963112  0.28829207  0.72450973    -0.31400
H2116       H  0.69477367  0.26759078  0.73406180     0.16200
H2117       H  0.63415896  0.41239899  0.71804067     0.16200
H2118       H  0.69256748  0.33997278  0.58646330     0.16300
H2119       H  0.72568425  0.42767603  0.65855997     0.16200
C2120       C  0.58638058  0.27400151  0.53835843     0.86600
C2121       C  0.57459470  0.25146236  0.56795688    -0.53700
C2122       C  0.60089063  0.24565216  0.59021076     0.09500
C2123       C  0.63657417  0.26141686  0.58120649     0.20400
C2124       C  0.60217947  0.30629458  0.55681259    -0.54400
C2125       C  0.62866045  0.29928861  0.57901426     0.09600
C2126       C  0.61890306  0.25569593  0.52220935    -0.53900
C2127       C  0.64535396  0.24893587  0.54478628     0.10200
H2128       H  0.54770936  0.24374511  0.57358348     0.14700
H2129       H  0.65696187  0.25562848  0.60055005     0.00400
H2130       H  0.59144597  0.33181255  0.55454452     0.15000
H2131       H  0.62004339  0.24776540  0.49601693     0.14800
C2132       C  0.81799333  0.28542950  0.78999935     0.86600
C2133       C  0.84063180  0.26084505  0.76818942    -0.53700
C2134       C  0.82160626  0.23860808  0.74961363     0.09500
C2135       C  0.77993613  0.23960699  0.76009540     0.20400
C2136       C  0.78931277  0.29939997  0.76655911    -0.54400
C2137       C  0.76933984  0.27636696  0.75038210     0.09600
C2138       C  0.79839447  0.26246474  0.81552841    -0.53900
C2139       C  0.77666601  0.23876010  0.80109070     0.10200
H2140       H  0.86918135  0.26256217  0.76480356     0.14700
H2141       H  0.76308570  0.22028474  0.74716432     0.00400
H2142       H  0.78582620  0.32650205  0.76186627     0.15000
H2143       H  0.79986178  0.26576818  0.84257256     0.14800
C2144       C  0.73929904  0.19028998  0.55356589     0.30100
C2145       C  0.67895340  0.22738233  0.53987064     0.30100
C2146       C  0.73828461  0.22676841  0.56673555    -0.06100
C2147       C  0.73138572  0.19684276  0.51367494    -0.06900
C2148       C  0.70328756  0.17507647  0.56593538    -0.06800
C2149       C  0.70874960  0.24557684  0.55866302    -0.06100
C2150       C  0.69969223  0.21569832  0.50751143    -0.06900
C2151       C  0.67362248  0.19398359  0.55914511    -0.06800
C2152       C  0.71864531  0.27937676  0.55989884    -0.32200
N2153       N  0.75217077  0.28183668  0.57177282     0.14300
C2154       C  0.76475336  0.24973525  0.57452063    -0.32200
H2155       H  0.79183909  0.24311847  0.57919550     0.16300
C2156       C  0.69582615  0.22266004  0.97323074    -0.31100
N2157       N  0.72459833  0.20941672  0.95645351     0.13100
C2158       C  0.74518139  0.19367514  0.98081337    -0.31100
C2159       C  0.64456479  0.17736482  0.57308935    -0.31400
N2160       N  0.65522979  0.14985231  0.59099049     0.13600
H2161       H  0.61738775  0.18415892  0.56839472     0.16200
C2162       C  0.69063002  0.14637364  0.58287737    -0.31400
H2163       H  0.70593955  0.12357535  0.58625319     0.16200
H2164       H  0.76948224  0.18011429  0.97521354     0.16200
H2165       H  0.70304926  0.30031735  0.55077347     0.16300
H2166       H  0.67438351  0.23612395  0.96107251     0.16200
C2167       C  0.74723232  0.21825837  0.82197087     0.30100
C2168       C  0.68883458  0.17751182  0.83563706     0.30100
C2169       C  0.74924331  0.18062105  0.81039525    -0.06100
C2170       C  0.73802200  0.21272067  0.86226992    -0.06900
C2171       C  0.71035356  0.23066620  0.80911737    -0.06800
C2172       C  0.71982017  0.16056337  0.81691730    -0.06100
C2173       C  0.70753436  0.19148350  0.86773337    -0.06900
C2174       C  0.68186084  0.21012347  0.81610402    -0.06800
C2175       C  0.73055311  0.12690654  0.81419649    -0.32200
N2176       N  0.76491029  0.12507759  0.80392046     0.14300
C2177       C  0.77708412  0.15786702  0.80490779    -0.32200
H2178       H  0.80501061  0.16461778  0.80572847     0.16300
C2179       C  0.70132242  0.18814248  0.90206033    -0.31100
N2180       N  0.72643384  0.20535261  0.92003878     0.13100
C2181       C  0.74871740  0.22083862  0.89635687    -0.31100
C2182       C  0.65163652  0.22534459  0.80349299    -0.31400
N2183       N  0.66026955  0.25379235  0.78630677     0.13600
H2184       H  0.62511100  0.21678164  0.80833765     0.16200
C2185       C  0.69570865  0.25919607  0.79333014    -0.31400
H2186       H  0.70990126  0.28258197  0.78834383     0.16200
H2187       H  0.77077542  0.23735702  0.90302213     0.16200
H2188       H  0.71500750  0.10526573  0.82213939     0.16300
H2189       H  0.67938643  0.17442566  0.91335672     0.16200
N2190       N  0.98018246  0.00780316  0.97915315    -0.06000
N2191       N  0.97995583  0.03042742  0.00378139    -0.58200
N2192       N  0.52851270  0.46709708  0.92355134    -0.05700
N2193       N  0.56329981  0.46443132  0.91956640    -0.60300
N2194       N  0.01469284  0.99382212  0.91196127    -0.05300
N2195       N  0.03898871  0.01207241  0.89710344    -0.58100
N2196       N  0.48916890  0.48072704  0.98874677    -0.05000
N2197       N  0.49404844  0.48302762  0.02141783    -0.60600
C2198       C  0.49092366  0.01201422  0.53142183     0.96100
C2199       C  0.56855055  0.99333710  0.90028210     0.95900
N2200       N  0.96893129  0.38116966  0.90643244    -0.06200
N2201       N  0.97568518  0.36514932  0.87794733    -0.58700
N2202       N  0.46510102  0.40381398  0.98872583    -0.04400
N2203       N  0.48412749  0.38608939  0.00996883    -0.60000
N2204       N  0.93948686  0.38467527  0.97613041    -0.06300
N2205       N  0.94292278  0.35309492  0.98702669    -0.59000
N2206       N  0.49784427  0.39630289  0.91785340    -0.04000
N2207       N  0.52458235  0.39142299  0.89701742    -0.60100
Mn2208     Mn  0.49551097  0.43661809  0.95563423     1.18400
C2209       C  0.51069375  0.37145947  0.87272402     0.98200
C2210       C  0.47302011  0.35561407  0.50748383     0.98900
N2211       N  0.94524264  0.01327654  0.87405140    -0.06300
N2212       N  0.96070124  0.02164551  0.84522885    -0.62600
N2213       N  0.88567898  0.52195614  0.93321559    -0.05100
N2214       N  0.85993907  0.53946450  0.94754659    -0.63300
N2215       N  0.91494512  0.03373213  0.94169743    -0.05800
N2216       N  0.91100158  0.06211653  0.95857837    -0.62900
N2217       N  0.91642835  0.50092309  0.86481782    -0.04700
N2218       N  0.91007508  0.99360197  0.83588172    -0.63500
Mn2219     Mn  0.96439937  0.01343597  0.92631476     1.10700
C2220       C  0.93802503  0.00907974  0.82138833     0.99400
C2221       C  0.87703903  0.06252409  0.46566000     0.99500
N2222       N  0.86763816  0.41675879  0.94810686    -0.05800
N2223       N  0.85080717  0.40549221  0.97477798    -0.61200
N2224       N  0.88241420  0.43446892  0.86908952    -0.05100
N2225       N  0.87260739  0.43485126  0.83737400    -0.61100
N2226       N  0.89802672  0.40594470  0.87653788    -0.06400
N2227       N  0.89980723  0.38637355  0.84973334    -0.60700
N2228       N  0.85606673  0.44739757  0.94046718    -0.05400
N2229       N  0.83168704  0.45766068  0.96217364    -0.57900
Mn2230     Mn  0.91738193  0.39579017  0.92667575     1.20200
Mn2231     Mn  0.88331209  0.47689242  0.90212377     1.10100
Cl2232     Cl  0.94038373  0.45627698  0.92739232    -0.85900
C2233       C  0.82750171  0.43248472  0.48346738     0.96400
C2234       C  0.88289147  0.40428391  0.82558016     0.96200
C2235       C  0.86331824  0.32984810  0.78040597    -0.12200
C2236       C  0.83653214  0.31704403  0.80191366     0.04800
C2237       C  0.81783493  0.34062282  0.82259565    -0.07500
C2238       C  0.82805911  0.37468762  0.82283551    -0.08200
C2239       C  0.85866828  0.38489348  0.80536533    -0.02800
C2240       C  0.87383902  0.36336507  0.78155247     0.04000
N2241       N  0.90304416  0.37382065  0.76107010     0.66500
H2242       H  0.87558276  0.31492195  0.76078399     0.15400
H2243       H  0.81558331  0.39182643  0.84080594     0.15200
N2244       N  0.78805145  0.33059516  0.84278950     0.74200
O2245       O  0.93403852  0.36791235  0.77146051    -0.39200
O2246       O  0.89808531  0.37680429  0.72981021    -0.39100
O2247       O  0.79285068  0.32215024  0.87303071    -0.39900
O2248       O  0.75737567  0.32817136  0.83003597    -0.39900
C2249       C  0.56300830  0.31309412  0.49580140    -0.12200
C2250       C  0.55666481  0.28339847  0.51389203     0.04800
C2251       C  0.52062629  0.27241980  0.51711933    -0.07500
C2252       C  0.49323636  0.29599954  0.51256634    -0.08200
C2253       C  0.50132638  0.32974897  0.50471614    -0.02800
C2254       C  0.53664644  0.33775363  0.49399336     0.04000
N2255       N  0.54796531  0.37137413  0.48513736     0.66500
H2256       H  0.59021990  0.32062169  0.49029226     0.15400
H2257       H  0.46584091  0.28830209  0.51672671     0.15200
N2258       N  0.51101963  0.23738722  0.52134073     0.74200
O2259       O  0.55790808  0.39112569  0.50855205    -0.39200
O2260       O  0.56123988  0.37570261  0.45630471    -0.39100
O2261       O  0.49233029  0.22917184  0.54648371    -0.39900
O2262       O  0.50928886  0.21885186  0.49529530    -0.39900
C2263       C  0.88324562  0.06691722  0.78519285    -0.12200
C2264       C  0.86016989  0.04290952  0.76964668     0.04800
C2265       C  0.87512891  0.01149701  0.75906972    -0.07500
C2266       C  0.91068285  0.00425166  0.76748848    -0.08200
C2267       C  0.92968210  0.02576177  0.78975027    -0.02800
C2268       C  0.91802105  0.05933293  0.79350195     0.04000
N2269       N  0.93822558  0.08428613  0.81166854     0.66500
H2270       H  0.87414237  0.09249870  0.79093412     0.15400
H2271       H  0.92028384  0.97858558  0.76302926     0.15200
N2272       N  0.85492449  0.98568772  0.74219673     0.74200
O2273       O  0.95489178  0.10657243  0.79509379    -0.39200
O2274       O  0.92979732  0.09086318  0.84179296    -0.39100
O2275       O  0.86158867  0.97960324  0.71159812    -0.39900
O2276       O  0.84809803  0.46076639  0.74612014    -0.39900
C2277       C  0.77632720  0.41111381  0.55712501    -0.12200
C2278       C  0.80499774  0.39810690  0.57600906     0.04800
C2279       C  0.83915517  0.41252187  0.57071408    -0.07500
C2280       C  0.84470164  0.43233534  0.54208742    -0.08200
C2281       C  0.81731195  0.43645759  0.51856957    -0.02800
C2282       C  0.78223501  0.42969829  0.52814619     0.04000
N2283       N  0.75378233  0.43547674  0.00576947     0.66500
H2284       H  0.74930497  0.40257560  0.56193812     0.15400
H2285       H  0.87167145  0.43983134  0.53560764     0.15200
N2286       N  0.86873279  0.40677834  0.59236146     0.74200
O2287       O  0.74253973  0.41125060  0.98755959    -0.39200
O2288       O  0.73302260  0.45975898  0.01256473    -0.39100
O2289       O  0.89327303  0.38743634  0.58211531    -0.39900
O2290       O  0.87626950  0.42949830  0.61388009    -0.39900
C2291       C  0.59461180  0.01090083  0.85114153    -0.12200
C2292       C  0.60119221  0.00535080  0.88512064     0.04800
C2293       C  0.61903152  0.03104683  0.90349354    -0.07500
C2294       C  0.62203320  0.06390865  0.89035938    -0.08200
C2295       C  0.60726785  0.07154154  0.85893945    -0.02800
C2296       C  0.59126186  0.04428141  0.84006611     0.04000
N2297       N  0.57280044  0.04971164  0.80901486     0.66500
H2298       H  0.58194758  0.99088075  0.83633542     0.15400
H2299       H  0.63590287  0.08301425  0.90503798     0.15200
N2300       N  0.63160590  0.02496206  0.93673544     0.74200
O2301       O  0.58795931  0.04206730  0.78162460    -0.39200
O2302       O  0.53923763  0.05080938  0.80968040    -0.39100
O2303       O  0.66447892  0.02014091  0.94088669    -0.39900
O2304       O  0.61317906  0.03509595  0.96138806    -0.39900
C2305       C  0.84797087  0.08060296  0.55306535    -0.12200
C2306       C  0.84832932  0.11617892  0.55295627     0.04800
C2307       C  0.86587539  0.13328820  0.52658011    -0.07500
C2308       C  0.87354197  0.11538526  0.49723624    -0.08200
C2309       C  0.86514861  0.08061707  0.49497849    -0.02800
C2310       C  0.85415108  0.06279271  0.52374588     0.04000
N2311       N  0.84932112  0.02670280  0.52418035     0.66500
H2312       H  0.84126594  0.06591831  0.57497022     0.15400
H2313       H  0.88617385  0.12842471  0.47637138     0.15200
N2314       N  0.87692223  0.16811128  0.52999248     0.74200
O2315       O  0.87318585  0.00887669  0.53763728    -0.39200
O2316       O  0.82056660  0.01452929  0.02441436    -0.39100
O2317       O  0.90583750  0.17483427  0.54480414    -0.39900
O2318       O  0.85563366  0.19195553  0.52355522    -0.39900
C2319       C  0.50852875  0.35088651  0.81430874    -0.12200
C2320       C  0.52881239  0.36409737  0.84096215     0.04800
C2321       C  0.56557963  0.37001250  0.83613302    -0.07500
C2322       C  0.58165685  0.35792966  0.80707693    -0.08200
C2323       C  0.56235756  0.33824359  0.78376723    -0.02800
C2324       C  0.52490160  0.33894093  0.78514339     0.04000
N2325       N  0.50336691  0.33262282  0.75614399     0.66500
H2326       H  0.47980567  0.34972723  0.81608684     0.15400
H2327       H  0.61030898  0.36050944  0.80467271     0.15200
N2328       N  0.58771503  0.38615634  0.86080094     0.74200
O2329       O  0.48033820  0.30911011  0.75703704    -0.39200
O2330       O  0.49935218  0.35654661  0.73542129    -0.39100
O2331       O  0.60684134  0.36765594  0.87922489    -0.39900
O2332       O  0.59736285  0.41655280  0.85581978    -0.39900
C2333       C  0.54665207  0.01579476  0.56250504    -0.12200
C2334       C  0.51221910  0.02820450  0.55749186     0.04800
C2335       C  0.50145130  0.05828136  0.57350431    -0.07500
C2336       C  0.52506117  0.07525594  0.59445757    -0.08200
C2337       C  0.55953554  0.06270057  0.60056145    -0.02800
C2338       C  0.57082026  0.03330660  0.58257267     0.04000
N2339       N  0.60723051  0.02287702  0.58082606     0.66500
H2340       H  0.55607392  0.99378015  0.54852340     0.15400
H2341       H  0.51645335  0.09975955  0.60375992     0.15200
N2342       N  0.96722263  0.07288182  0.56793359     0.74200
O2343       O  0.61617184  0.99592665  0.59570641    -0.39200
O2344       O  0.62560716  0.03250983  0.55598159    -0.39100
O2345       O  0.94409327  0.07069310  0.59089587    -0.39900
O2346       O  0.96481624  0.09675428  0.54694049    -0.39900
C2347       C  0.58094323  0.58192329  0.12149499     0.86600
C2348       C  0.60998292  0.56229981  0.14078866    -0.53700
C2349       C  0.63539823  0.58217596  0.15554371     0.09500
C2350       C  0.62684139  0.62190510  0.15045230     0.20400
C2351       C  0.56355079  0.60653231  0.14691481    -0.54400
C2352       C  0.58552177  0.62884217  0.16214873     0.09600
C2353       C  0.60280651  0.60444306  0.09654483    -0.53900
C2354       C  0.62783150  0.62515158  0.11073875     0.10200
H2355       H  0.61282016  0.53513490  0.14027801     0.14700
H2356       H  0.64610343  0.63926877  0.16302484     0.00400
H2357       H  0.53491653  0.60798068  0.15041302     0.15000
H2358       H  0.59918089  0.60333048  0.06943481     0.14800
C2359       C  0.56961642  0.66195278  0.18118886     0.30100
C2360       C  0.56935422  0.72604768  0.21230179     0.30100
C2361       C  0.58939454  0.69029105  0.16438342    -0.06100
C2362       C  0.53031288  0.67965994  0.18433167    -0.06900
C2363       C  0.58107764  0.66360181  0.21813399    -0.06800
C2364       C  0.59020167  0.72190761  0.17994235    -0.06100
C2365       C  0.53045984  0.71252340  0.20074185    -0.06900
C2366       C  0.58126408  0.69569943  0.23369772    -0.06800
C2367       C  0.59379037  0.74523299  0.15472408    -0.32200
N2368       N  0.59599508  0.72895980  0.12499059     0.14300
C2369       C  0.59035214  0.69587170  0.13047387    -0.32200
H2370       H  0.58155178  0.67784336  0.11162831     0.16300
C2371       C  0.99415999  0.72271200  0.20317220    -0.31100
N2372       N  0.97144710  0.69890176  0.18872160     0.13100
C2373       C  0.99348367  0.67294263  0.17712425    -0.31100
C2374       C  0.57617333  0.68963232  0.26766461    -0.31400
N2375       N  0.57597163  0.65567066  0.27410632     0.13600
H2376       H  0.57087049  0.70903616  0.28643383     0.16200
C2377       C  0.57523205  0.64020529  0.24354896    -0.31400
H2378       H  0.57211864  0.61296433  0.23999801     0.16200
H2379       H  0.98362994  0.64999483  0.16503058     0.16200
H2380       H  0.58792324  0.77162710  0.15770782     0.16300
H2381       H  0.98515456  0.74608528  0.21490892     0.16200
C2382       C  0.58242722  0.81201599  0.26467546     0.86600
C2383       C  0.60434598  0.83172882  0.23859750    -0.53700
C2384       C  0.62748774  0.81292741  0.22042348     0.09500
C2385       C  0.62414702  0.77300642  0.23014684     0.20400
C2386       C  0.56186123  0.78332888  0.24569749    -0.54400
C2387       C  0.58291620  0.76146267  0.22798498     0.09600
C2388       C  0.60977246  0.79202707  0.28627206    -0.53900
C2389       C  0.63281006  0.77236409  0.26896228     0.10200
H2390       H  0.60350369  0.85929645  0.23676724     0.14700
H2391       H  0.64133067  0.75600399  0.21493880     0.00400
H2392       H  0.53383377  0.77812904  0.24899454     0.15000
H2393       H  0.61048956  0.79290135  0.31361225     0.14800
C2394       C  0.66990181  0.56635229  0.17244393     0.30100
C2395       C  0.73126940  0.54967916  0.20813205     0.30100
C2396       C  0.67347901  0.58083173  0.20685578    -0.06100
C2397       C  0.67657202  0.52542051  0.18001972    -0.06900
C2398       C  0.70592897  0.57874490  0.15740397    -0.06800
C2399       C  0.70211719  0.57022651  0.22505114    -0.06100
C2400       C  0.70826902  0.51826586  0.19859343    -0.06900
C2401       C  0.73643975  0.56689498  0.17337732    -0.06800
C2402       C  0.69535994  0.57822809  0.25746320    -0.32200
N2403       N  0.66720993  0.59909090  0.25825000     0.14300
C2404       C  0.65284327  0.60010929  0.22735872    -0.32200
H2405       H  0.62797930  0.61101030  0.22075683     0.16300
C2406       C  0.71012988  0.98462161  0.20674524    -0.31100
N2407       N  0.68045142  0.96849498  0.19431188     0.13100
C2408       C  0.66004744  0.49241790  0.17729931    -0.31100
C2409       C  0.76519586  0.58364168  0.15933272    -0.31400
N2410       N  0.75385680  0.61007372  0.14023318     0.13600
H2411       H  0.79267445  0.57718510  0.16378931     0.16200
C2412       C  0.71772921  0.60906135  0.14267196    -0.31400
H2413       H  0.70134741  0.63092804  0.13906905     0.16200
H2414       H  0.63663042  0.98863364  0.16481901     0.16200
H2415       H  0.70905303  0.56770894  0.27877776     0.16300
H2416       H  0.73144883  0.97171353  0.21967400     0.16200
C2417       C  0.82218556  0.63523794  0.07272443     0.86600
C2418       C  0.84102086  0.66135704  0.09533753    -0.53700
C2419       C  0.81939658  0.67912811  0.11591700     0.09500
C2420       C  0.77767914  0.66864349  0.10969906     0.20400
C2421       C  0.80007342  0.61248027  0.09682621    -0.54400
C2422       C  0.77614612  0.62927458  0.11627586     0.09600
C2423       C  0.79372175  0.65378969  0.05201264    -0.53900
C2424       C  0.76936938  0.67080715  0.07017667     0.10200
H2425       H  0.86975300  0.66244219  0.09786319     0.14700
H2426       H  0.75862607  0.68306200  0.12565400     0.00400
H2427       H  0.80130086  0.58504959  0.09829527     0.15000
H2428       H  0.79184626  0.65169027  0.02482494     0.14800
C2429       C  0.61894243  0.59803195  0.33943739     0.86600
C2430       C  0.58721907  0.61681478  0.32255381    -0.53700
C2431       C  0.59789881  0.64145606  0.30027019     0.09500
C2432       C  0.63819188  0.64413627  0.29664827     0.20400
C2433       C  0.64181057  0.58515284  0.31071704    -0.54400
C2434       C  0.64970956  0.60849787  0.28798329     0.09600
C2435       C  0.64307902  0.62658127  0.35523383    -0.53900
C2436       C  0.65374192  0.65065728  0.33234902     0.10200
H2437       H  0.55960270  0.60917123  0.32551103     0.14700
H2438       H  0.64681924  0.66178928  0.27651797     0.00400
H2439       H  0.65108913  0.55907575  0.30786559     0.15000
H2440       H  0.65496761  0.62543619  0.37992000     0.14800
C2441       C  0.83369021  0.72315986  0.21398105     0.30100
C2442       C  0.83511864  0.69616919  0.14921936     0.30100
C2443       C  0.82223946  0.74665827  0.18557171    -0.06100
C2444       C  0.87309614  0.71221053  0.20078934    -0.06900
C2445       C  0.81247702  0.69161025  0.20719929    -0.06800
C2446       C  0.82330414  0.73309931  0.15294064    -0.06100
C2447       C  0.87382508  0.69798345  0.16735971    -0.06900
C2448       C  0.81496508  0.67730270  0.17552647    -0.06800
C2449       C  0.82938547  0.76023929  0.13193674    -0.32200
N2450       N  0.82782542  0.78979022  0.14942980     0.14300
C2451       C  0.82666388  0.78131771  0.18235255    -0.32200
H2452       H  0.83090100  0.79910180  0.20288072     0.16300
C2453       C  0.91047831  0.69092784  0.16048776    -0.31100
N2454       N  0.93231508  0.70065790  0.18704888     0.13100
C2455       C  0.90944167  0.71379230  0.21129115    -0.31100
C2456       C  0.81509222  0.64286687  0.17988413    -0.31400
N2457       N  0.80708414  0.63658296  0.21176972     0.13600
H2458       H  0.82559465  0.62423403  0.16246071     0.16200
C2459       C  0.80771277  0.66567925  0.22894005    -0.31400
H2460       H  0.81318959  0.66738037  0.25509766     0.16200
H2461       H  0.91836213  0.72413704  0.23515496     0.16200
H2462       H  0.83617841  0.75882294  0.10552972     0.16300
H2463       H  0.92039742  0.68036467  0.13708977     0.16200
C2464       C  0.79431591  0.86428972  0.09888566     0.86600
C2465       C  0.76434862  0.87349652  0.12339449    -0.53700
C2466       C  0.74954505  0.84655574  0.13906298     0.09500
C2467       C  0.76732391  0.81215058  0.12958947     0.20400
C2468       C  0.82187066  0.84458007  0.12006738    -0.54400
C2469       C  0.80727412  0.81724869  0.13616602     0.09600
C2470       C  0.77838066  0.83636477  0.07505549    -0.53900
C2471       C  0.76466136  0.80904387  0.09146884     0.10200
H2472       H  0.75438120  0.89904092  0.12545824     0.14700
H2473       H  0.75581699  0.78946118  0.14224825     0.00400
H2474       H  0.85022806  0.84884554  0.12023697     0.15000
H2475       H  0.77846573  0.83797637  0.04776793     0.14800
C2476       C  0.82426578  0.55653190  0.25733605     0.86600
C2477       C  0.79322899  0.53596173  0.23947626    -0.53700
C2478       C  0.76424347  0.55634124  0.23162694     0.09500
C2479       C  0.77000966  0.59431804  0.24351908     0.20400
C2480       C  0.83180825  0.58514947  0.23244623    -0.54400
C2481       C  0.80384022  0.60470869  0.22670014     0.09600
C2482       C  0.80630758  0.57426805  0.28871038    -0.53900
C2483       C  0.77836285  0.59490624  0.28120516     0.10200
H2484       H  0.79483306  0.50949587  0.23175512     0.14700
H2485       H  0.74915443  0.61304735  0.23694274     0.00400
H2486       H  0.85792247  0.59147456  0.22227396     0.15000
H2487       H  0.81727255  0.57326678  0.31395932     0.14800
C2488       C  0.65794229  0.83105220  0.19899199     0.30100
C2489       C  0.71651469  0.84752646  0.16097414     0.30100
C2490       C  0.65602073  0.82126236  0.16169121    -0.06100
C2491       C  0.66706757  0.87252454  0.19549080    -0.06900
C2492       C  0.69438313  0.81564968  0.20950270    -0.06800
C2493       C  0.68611307  0.82876270  0.14279143    -0.06100
C2494       C  0.69760824  0.87920157  0.17532249    -0.06900
C2495       C  0.72332307  0.82745220  0.19251011    -0.06800
C2496       C  0.67567881  0.82952908  0.10954160    -0.32200
N2497       N  0.64076986  0.82137404  0.10674619     0.14300
C2498       C  0.62826729  0.82000109  0.13878254    -0.32200
H2499       H  0.60032143  0.82130377  0.14491747     0.16300
C2500       C  0.70367688  0.91410107  0.17313457    -0.31100
N2501       N  0.67814012  0.93167062  0.18962066     0.13100
C2502       C  0.65588721  0.90697090  0.20400894    -0.31100
C2503       C  0.75319512  0.81329577  0.20598445    -0.31400
N2504       N  0.74400497  0.78777678  0.22697162     0.13600
H2505       H  0.77953283  0.82310333  0.20205871     0.16200
C2506       C  0.70784376  0.78780692  0.22708950    -0.31400
H2507       H  0.69287018  0.76665227  0.23543124     0.16200
H2508       H  0.63338943  0.91316228  0.21987197     0.16200
H2509       H  0.69193822  0.83851221  0.08902723     0.16300
H2510       H  0.72591327  0.92662371  0.16135696     0.16200
C2511       C  0.58451369  0.77219862  0.04166029     0.86600
C2512       C  0.57387545  0.74969840  0.07156268    -0.53700
C2513       C  0.60088990  0.74429333  0.09306639     0.09500
C2514       C  0.63611819  0.76028490  0.08299503     0.20400
C2515       C  0.60053273  0.80478119  0.05952282    -0.54400
C2516       C  0.62779817  0.79810002  0.08105847     0.09600
C2517       C  0.61646596  0.75415279  0.02455308    -0.53900
C2518       C  0.64365860  0.74777583  0.04623516     0.10200
H2519       H  0.54732847  0.74143912  0.07782032     0.14700
H2520       H  0.65713138  0.75460946  0.10176045     0.00400
H2521       H  0.58930653  0.83012431  0.05748172     0.15000
H2522       H  0.61666783  0.74590856  0.99842400     0.14800
C2523       C  0.81734462  0.78066862  0.29205956     0.86600
C2524       C  0.83901522  0.75706602  0.26852882    -0.53700
C2525       C  0.81922763  0.73586950  0.24946661     0.09500
C2526       C  0.77770229  0.73720832  0.26052859     0.20400
C2527       C  0.78820842  0.79647668  0.27012337    -0.54400
C2528       C  0.76765756  0.77459038  0.25286697     0.09600
C2529       C  0.79792818  0.75648628  0.31660564    -0.53900
C2530       C  0.77497855  0.73452824  0.30139246     0.10200
H2531       H  0.86748869  0.75912250  0.26452593     0.14700
H2532       H  0.76020413  0.71891613  0.24692652     0.00400
H2533       H  0.78506478  0.82386286  0.26710612     0.15000
H2534       H  0.80047881  0.75740656  0.34369857     0.14800
C2535       C  0.73635706  0.68801600  0.05325680     0.30100
C2536       C  0.67653135  0.72577467  0.04023951     0.30100
C2537       C  0.73603798  0.72461916  0.06631717    -0.06100
C2538       C  0.72797968  0.69441509  0.01340323    -0.06900
C2539       C  0.70025239  0.67305711  0.06611129    -0.06800
C2540       C  0.70696794  0.74371987  0.05830432    -0.06100
C2541       C  0.69645137  0.71358897  0.00752263    -0.06900
C2542       C  0.67082146  0.69241179  0.05967175    -0.06800
C2543       C  0.71662123  0.77749456  0.06159647    -0.32200
N2544       N  0.74952949  0.77943244  0.07510524     0.14300
C2545       C  0.76196763  0.74711389  0.07698283    -0.32200
H2546       H  0.78850281  0.74008364  0.08341130     0.16300
C2547       C  0.69446700  0.71949042  0.47288509    -0.31100
N2548       N  0.72260136  0.70521136  0.45600318     0.13100
C2549       C  0.74329225  0.68968899  0.48042411    -0.31100
C2550       C  0.64135812  0.67558882  0.07290089    -0.31400
N2551       N  0.65148914  0.64733703  0.09001049     0.13600
H2552       H  0.61426819  0.68286602  0.06831281     0.16200
C2553       C  0.68693014  0.64380548  0.08190903    -0.31400
H2554       H  0.70179106  0.62061478  0.08447905     0.16200
H2555       H  0.76711515  0.67542302  0.47472231     0.16200
H2556       H  0.70112893  0.79880240  0.05319961     0.16300
H2557       H  0.67312221  0.73309087  0.46072832     0.16200
C2558       C  0.74529985  0.71408259  0.32180447     0.30100
C2559       C  0.68690480  0.67329956  0.33471733     0.30100
C2560       C  0.74751247  0.67658532  0.31004756    -0.06100
C2561       C  0.73590335  0.70830401  0.36191286    -0.06900
C2562       C  0.70852915  0.72664239  0.30884996    -0.06800
C2563       C  0.71807803  0.65640013  0.31610426    -0.06100
C2564       C  0.70535050  0.68715098  0.36713157    -0.06900
C2565       C  0.68002669  0.70594477  0.31524083    -0.06800
C2566       C  0.72919388  0.62280809  0.31344308    -0.32200
N2567       N  0.76376772  0.62124344  0.30365526     0.14300
C2568       C  0.77565499  0.65407775  0.30504414    -0.32200
H2569       H  0.80347465  0.66103312  0.30566939     0.16300
C2570       C  0.69905166  0.68383571  0.40153509    -0.31100
N2571       N  0.72426112  0.70094746  0.41958686     0.13100
C2572       C  0.74661011  0.71633850  0.39595262    -0.31100
C2573       C  0.64982129  0.72148455  0.30289279    -0.31400
N2574       N  0.65849426  0.75051359  0.28673617     0.13600
H2575       H  0.62326175  0.71284239  0.30732638     0.16200
C2576       C  0.69385248  0.75575321  0.29420512    -0.31400
H2577       H  0.70794207  0.77943431  0.29042135     0.16200
H2578       H  0.76871896  0.73278440  0.40264014     0.16200
H2579       H  0.71376278  0.60101049  0.32112914     0.16300
H2580       H  0.67702483  0.67022308  0.41280209     0.16200
N2581       N  0.97940047  0.51109795  0.47728108    -0.06000
N2582       N  0.97730848  0.53409177  0.50148300    -0.58200
N2583       N  0.52885315  0.96492170  0.42468569    -0.05700
N2584       N  0.56354750  0.96317206  0.41902529    -0.60300
N2585       N  0.01619840  0.49535199  0.41147991    -0.05300
N2586       N  0.04228825  0.51260651  0.39810579    -0.58100
N2587       N  0.49090540  0.97766986  0.49088286    -0.05000
N2588       N  0.49701878  0.97910780  0.52331536    -0.60600
C2589       C  0.48689393  0.51607545  0.02869647     0.96100
C2590       C  0.57073873  0.49258249  0.40319189     0.95900
N2591       N  0.96912284  0.87799303  0.41007397    -0.06200
N2592       N  0.97568454  0.86178056  0.38160553    -0.58700
N2593       N  0.46534729  0.90356512  0.49253849    -0.04400
N2594       N  0.48345130  0.88788103  0.51586967    -0.60000
N2595       N  0.94048680  0.88330283  0.48043614    -0.06300
N2596       N  0.94416876  0.85256021  0.49324985    -0.59000
N2597       N  0.49814121  0.89302575  0.42129045    -0.04000
N2598       N  0.52486941  0.88748667  0.40067123    -0.60100
Mn2599     Mn  0.49638757  0.93425657  0.45805516     1.18400
C2600       C  0.51078263  0.86759065  0.37645678     0.98200
C2601       C  0.47287067  0.85468930  0.01247430     0.98900
N2602       N  0.94735219  0.51670208  0.37120303    -0.06300
N2603       N  0.96252367  0.52568522  0.34237088    -0.62600
N2604       N  0.88529707  0.01819472  0.43742220    -0.05100
N2605       N  0.85958832  0.03547764  0.45210350    -0.63300
N2606       N  0.91644698  0.53845940  0.43811467    -0.05800
N2607       N  0.91277806  0.56727582  0.45437936    -0.62900
N2608       N  0.91534438  0.99741194  0.36872676    -0.04700
N2609       N  0.91120868  0.49868751  0.33299075    -0.63500
Mn2610     Mn  0.96571144  0.51658295  0.42396845     1.10700
C2611       C  0.93942422  0.51374160  0.31853041     0.99400
C2612       C  0.87734988  0.56658118  0.96101154     0.99500
N2613       N  0.86839906  0.91381858  0.45293496    -0.05800
N2614       N  0.85299726  0.90373498  0.48083115    -0.61200
N2615       N  0.88216581  0.93032323  0.37300835    -0.05100
N2616       N  0.87250448  0.93019747  0.34121051    -0.61100
N2617       N  0.89820326  0.90208682  0.38071860    -0.06400
N2618       N  0.90065677  0.88242069  0.35400350    -0.60700
N2619       N  0.85630746  0.94407203  0.44462148    -0.05400
N2620       N  0.83292935  0.95522259  0.46684816    -0.57900
Mn2621     Mn  0.91789862  0.89275658  0.43090667     1.20200
Mn2622     Mn  0.88289049  0.97316359  0.40602895     1.10100
Cl2623     Cl  0.94055071  0.95325698  0.43072170    -0.85900
C2624       C  0.83075284  0.92972888  0.98836955     0.96400
C2625       C  0.88314525  0.89957247  0.32966936     0.96200
C2626       C  0.86128020  0.82605454  0.28196304    -0.12200
C2627       C  0.83735872  0.81101290  0.30512618     0.04800
C2628       C  0.82122549  0.83244204  0.32956538    -0.07500
C2629       C  0.83043454  0.86667759  0.33108540    -0.08200
C2630       C  0.85816317  0.87925420  0.31105044    -0.02800
C2631       C  0.87125250  0.85974437  0.28453535     0.04000
N2632       N  0.89424040  0.87373852  0.25951889     0.66500
H2633       H  0.87053849  0.81294383  0.25967445     0.15400
H2634       H  0.81998983  0.88200893  0.35165314     0.15200
N2635       N  0.79607408  0.81985510  0.35348726     0.74200
O2636       O  0.92692460  0.86687924  0.26089952    -0.39200
O2637       O  0.88096643  0.88127705  0.23136833    -0.39100
O2638       O  0.80692590  0.80839713  0.38123487    -0.39900
O2639       O  0.76347490  0.81779060  0.34606336    -0.39900
C2640       C  0.56069445  0.80954011  0.99843039    -0.12200
C2641       C  0.55428957  0.78085386  0.01785570     0.04800
C2642       C  0.51827078  0.77077361  0.02288037    -0.07500
C2643       C  0.49143537  0.79496226  0.01913008    -0.08200
C2644       C  0.50022135  0.82815434  0.00984179    -0.02800
C2645       C  0.53505464  0.83476506  0.99693769     0.04000
N2646       N  0.54680565  0.86752066  0.98577105     0.66500
H2647       H  0.58783738  0.81611893  0.99158745     0.15400
H2648       H  0.46404924  0.78814989  0.02462191     0.15200
N2649       N  0.50802082  0.73594892  0.02741025     0.74200
O2650       O  0.55788579  0.88847987  0.00766024    -0.39200
O2651       O  0.55951808  0.86960094  0.95647142    -0.39100
O2652       O  0.49034206  0.72801253  0.05327775    -0.39900
O2653       O  0.50480319  0.71749348  0.00143214    -0.39900
C2654       C  0.88369258  0.56875036  0.28170911    -0.12200
C2655       C  0.86160769  0.54377435  0.26615798     0.04800
C2656       C  0.87837869  0.51353158  0.25476002    -0.07500
C2657       C  0.91408132  0.50745831  0.26382060    -0.08200
C2658       C  0.93207759  0.52966783  0.28618873    -0.02800
C2659       C  0.91913034  0.56282178  0.28916637     0.04000
N2660       N  0.93948847  0.58936336  0.30478319     0.66500
H2661       H  0.87348255  0.59393857  0.28744425     0.15400
H2662       H  0.92502681  0.48238626  0.25893525     0.15200
N2663       N  0.86040160  0.48855129  0.23475410     0.74200
O2664       O  0.95543280  0.61034606  0.28605262    -0.39200
O2665       O  0.93205379  0.59819335  0.33457902    -0.39100
O2666       O  0.86765102  0.48689592  0.20375108    -0.39900
O2667       O  0.84158810  0.96141565  0.25710614    -0.39900
C2668       C  0.77684476  0.90915018  0.05941484    -0.12200
C2669       C  0.80457855  0.89555127  0.07896361     0.04800
C2670       C  0.83903263  0.90999577  0.07553573    -0.07500
C2671       C  0.84613107  0.92989699  0.04734870    -0.08200
C2672       C  0.81973465  0.93465276  0.02303095    -0.02800
C2673       C  0.78418149  0.92878846  0.03148525     0.04000
N2674       N  0.75620296  0.93857543  0.51194348     0.66500
H2675       H  0.74954465  0.90086496  0.06315766     0.15400
H2676       H  0.87343531  0.93714131  0.04195800     0.15200
N2677       N  0.86714845  0.90483559  0.09903920     0.74200
O2678       O  0.74405570  0.91678534  0.49141424    -0.39200
O2679       O  0.73621579  0.96248930  0.52160362    -0.39100
O2680       O  0.89319896  0.88664615  0.09017814    -0.39900
O2681       O  0.87199613  0.92717488  0.12160856    -0.39900
C2682       C  0.60156418  0.50434899  0.35511037    -0.12200
C2683       C  0.60490445  0.50233690  0.38986417     0.04800
C2684       C  0.62065974  0.52993890  0.40709743    -0.07500
C2685       C  0.62251600  0.56172637  0.39169235    -0.08200
C2686       C  0.60986501  0.56599781  0.35880840    -0.02800
C2687       C  0.59737807  0.53639507  0.34097715     0.04000
N2688       N  0.58052541  0.53817949  0.30866571     0.66500
H2689       H  0.59103993  0.48260749  0.34126170     0.15400
H2690       H  0.63294064  0.58281154  0.40623392     0.15200
N2691       N  0.62928150  0.52765400  0.44195859     0.74200
O2692       O  0.59754633  0.52847995  0.28292661    -0.39200
O2693       O  0.54696263  0.53727423  0.30768071    -0.39100
O2694       O  0.66166839  0.52648506  0.45018957    -0.39900
O2695       O  0.60680839  0.53769866  0.46343067    -0.39900
C2696       C  0.84978266  0.58214355  0.04946477    -0.12200
C2697       C  0.84744138  0.61759055  0.04950302     0.04800
C2698       C  0.86306564  0.63598869  0.02284705    -0.07500
C2699       C  0.87087406  0.61894253  0.99303916    -0.08200
C2700       C  0.86569632  0.58366921  0.99098320    -0.02800
C2701       C  0.85785980  0.56495500  0.02014963     0.04000
N2702       N  0.85918476  0.52864141  0.02115264     0.66500
H2703       H  0.84455635  0.56713653  0.07155166     0.15400
H2704       H  0.88154560  0.63296562  0.97183521     0.15200
N2705       N  0.87270072  0.67113703  0.02668206     0.74200
O2706       O  0.88744744  0.51493318  0.03139506    -0.39200
O2707       O  0.83066211  0.51441524  0.52218714    -0.39100
O2708       O  0.90185542  0.67863444  0.04069584    -0.39900
O2709       O  0.85021765  0.69428025  0.02147594    -0.39900
C2710       C  0.50834389  0.85229433  0.31622981    -0.12200
C2711       C  0.52879780  0.86113122  0.34450981     0.04800
C2712       C  0.56609696  0.86403547  0.34124527    -0.07500
C2713       C  0.58196000  0.85380520  0.31147554    -0.08200
C2714       C  0.56203745  0.83659644  0.28675657    -0.02800
C2715       C  0.52477275  0.84027798  0.28700654     0.04000
N2716       N  0.50410452  0.83712821  0.25701122     0.66500
H2717       H  0.47958536  0.85422135  0.31689731     0.15400
H2718       H  0.61077889  0.85466113  0.30991135     0.15200
N2719       N  0.58887517  0.87328507  0.36866264     0.74200
O2720       O  0.48058299  0.81412911  0.25522314    -0.39200
O2721       O  0.50099757  0.86310722  0.23867851    -0.39100
O2722       O  0.60297446  0.84976270  0.38549346    -0.39900
O2723       O  0.60384645  0.90214332  0.36825723    -0.39900
C2724       C  0.52072745  0.51263953  0.08131630    -0.12200
C2725       C  0.50257460  0.53291469  0.05821850     0.04800
C2726       C  0.50453848  0.56859865  0.06149658    -0.07500
C2727       C  0.52919918  0.58280485  0.08340796    -0.08200
C2728       C  0.55172913  0.56247130  0.10308340    -0.02800
C2729       C  0.54465458  0.52689192  0.10422660     0.04000
N2730       N  0.55849087  0.50484651  0.12938289     0.66500
H2731       H  0.51717431  0.48520077  0.08108724     0.15400
H2732       H  0.53163847  0.61036534  0.08418226     0.15200
N2733       N  0.98218747  0.59094994  0.04296120     0.74200
O2734       O  0.53917141  0.49872479  0.15467958    -0.39200
O2735       O  0.58111843  0.48282769  0.12059931    -0.39100
O2736       O  0.95536927  0.60344238  0.05760535    -0.39900
O2737       O  0.99542109  0.60672361  0.01831271    -0.39900
C2738       C  0.58131962  0.58271531  0.62120529     0.86600
C2739       C  0.61043199  0.56301361  0.64032649    -0.53700
C2740       C  0.63597108  0.58282131  0.65500566     0.09500
C2741       C  0.62748709  0.62255084  0.64999737     0.20400
C2742       C  0.56414409  0.60733889  0.64671792    -0.54400
C2743       C  0.58625432  0.62958656  0.66183007     0.09600
C2744       C  0.60310330  0.60523325  0.59617023    -0.53900
C2745       C  0.62829415  0.62583940  0.61031951     0.10200
H2746       H  0.61317685  0.53583785  0.63970916     0.14700
H2747       H  0.64686418  0.63985173  0.66249770     0.00400
H2748       H  0.53553614  0.60884918  0.65037662     0.15000
H2749       H  0.59932205  0.60417148  0.56907989     0.14800
C2750       C  0.57053150  0.66270322  0.68090507     0.30100
C2751       C  0.57034201  0.72662532  0.71224255     0.30100
C2752       C  0.59047485  0.69105345  0.66426571    -0.06100
C2753       C  0.53128261  0.68045232  0.68400015    -0.06900
C2754       C  0.58187902  0.66416615  0.71787582    -0.06800
C2755       C  0.59129927  0.72259725  0.67996118    -0.06100
C2756       C  0.53144608  0.71324160  0.70052900    -0.06900
C2757       C  0.58209273  0.69619938  0.73355755    -0.06800
C2758       C  0.59496434  0.74605940  0.65488419    -0.32200
N2759       N  0.59724067  0.72992329  0.62508716     0.14300
C2760       C  0.59152423  0.69681556  0.63039301    -0.32200
H2761       H  0.58263304  0.67892013  0.61146242     0.16300
C2762       C  0.99514387  0.72332487  0.70305010    -0.31100
N2763       N  0.97243391  0.69956945  0.68850544     0.13100
C2764       C  0.99445906  0.67366823  0.67679084    -0.31100
C2765       C  0.57675052  0.69004275  0.76746003    -0.31400
N2766       N  0.57641812  0.65606901  0.77378130     0.13600
H2767       H  0.57143513  0.70939651  0.78627657     0.16200
C2768       C  0.57578956  0.64070869  0.74317432    -0.31400
H2769       H  0.57264590  0.61347772  0.73951654     0.16200
H2770       H  0.98459887  0.65075406  0.66464048     0.16200
H2771       H  0.58900773  0.77235250  0.65796809     0.16300
H2772       H  0.98613011  0.74662261  0.71492571     0.16200
C2773       C  0.58306610  0.81242149  0.76470909     0.86600
C2774       C  0.60506893  0.83216210  0.73871246    -0.53700
C2775       C  0.62844926  0.81338071  0.72078629     0.09500
C2776       C  0.62511326  0.77349902  0.73046458     0.20400
C2777       C  0.56271374  0.78368493  0.74568373    -0.54400
C2778       C  0.58390170  0.76190706  0.72810218     0.09600
C2779       C  0.61041353  0.79260594  0.78648773    -0.53900
C2780       C  0.63360803  0.77296572  0.76927641     0.10200
H2781       H  0.60416082  0.85972171  0.73683772     0.14700
H2782       H  0.64241988  0.75652512  0.71535557     0.00400
H2783       H  0.53469849  0.77837097  0.74880814     0.15000
H2784       H  0.61102264  0.79362413  0.81382581     0.14800
C2785       C  0.67045248  0.56694443  0.67188021     0.30100
C2786       C  0.73164312  0.54990381  0.70760550     0.30100
C2787       C  0.67407539  0.58139687  0.70631609    -0.06100
C2788       C  0.67690220  0.52599205  0.67937631    -0.06900
C2789       C  0.70658269  0.57916385  0.65687310    -0.06800
C2790       C  0.70266140  0.57067212  0.72451560    -0.06100
C2791       C  0.70850265  0.51864472  0.69798825    -0.06900
C2792       C  0.73700360  0.56710880  0.67287595    -0.06800
C2793       C  0.69589717  0.57861955  0.75694050    -0.32200
N2794       N  0.66774802  0.59948662  0.75777691     0.14300
C2795       C  0.65344320  0.60066127  0.72685450    -0.32200
H2796       H  0.62866936  0.61157054  0.72028527     0.16300
C2797       C  0.71009446  0.98502864  0.70694380    -0.31100
N2798       N  0.68056032  0.96886218  0.69431909     0.13100
C2799       C  0.66035638  0.49304762  0.67630500    -0.31100
C2800       C  0.76591531  0.58368602  0.65891235    -0.31400
N2801       N  0.75477296  0.61021521  0.63986291     0.13600
H2802       H  0.79334368  0.57709725  0.66344058     0.16200
C2803       C  0.71863536  0.60946296  0.64228174    -0.31400
H2804       H  0.70243489  0.63148114  0.63879417     0.16200
H2805       H  0.63686558  0.98883614  0.66459400     0.16200
H2806       H  0.70947467  0.56789083  0.77822623     0.16300
H2807       H  0.73131049  0.97218110  0.72007851     0.16200
C2808       C  0.82330983  0.63600213  0.57269185     0.86600
C2809       C  0.84197181  0.66202727  0.59547778    -0.53700
C2810       C  0.82024084  0.67948037  0.61617992     0.09500
C2811       C  0.77857232  0.66892910  0.60982872     0.20400
C2812       C  0.80130432  0.61295421  0.59666511    -0.54400
C2813       C  0.77722274  0.62955276  0.61616750     0.09600
C2814       C  0.79474505  0.65451213  0.55207985    -0.53900
C2815       C  0.77025683  0.67125319  0.57030821     0.10200
H2816       H  0.87069438  0.66320539  0.59806181     0.14700
H2817       H  0.75944547  0.68317476  0.62585574     0.00400
H2818       H  0.80274841  0.58552388  0.59801171     0.15000
H2819       H  0.79294485  0.65262083  0.52487523     0.14800
C2820       C  0.61943387  0.59844579  0.83901811     0.86600
C2821       C  0.58769282  0.61720086  0.82217411    -0.53700
C2822       C  0.59837321  0.64179984  0.79985817     0.09500
C2823       C  0.63866283  0.64448881  0.79618429     0.20400
C2824       C  0.64221817  0.58548016  0.81025002    -0.54400
C2825       C  0.65017649  0.60884215  0.78751070     0.09600
C2826       C  0.64353502  0.62701587  0.85475131    -0.53900
C2827       C  0.65418093  0.65100961  0.83187606     0.10200
H2828       H  0.56007119  0.60961028  0.82520994     0.14700
H2829       H  0.64727650  0.66218528  0.77608175     0.00400
H2830       H  0.65139204  0.55937192  0.80740563     0.15000
H2831       H  0.65545042  0.62604086  0.87941311     0.14800
C2832       C  0.83464263  0.72274745  0.71445717     0.30100
C2833       C  0.83591033  0.69619810  0.64960741     0.30100
C2834       C  0.82266331  0.74626627  0.68630905    -0.06100
C2835       C  0.87409876  0.71239107  0.70096670    -0.06900
C2836       C  0.81395349  0.69090383  0.70775929    -0.06800
C2837       C  0.82374743  0.73294717  0.65359635    -0.06100
C2838       C  0.87475024  0.69834485  0.66746719    -0.06900
C2839       C  0.81616094  0.67688080  0.67591076    -0.06800
C2840       C  0.83014906  0.76021578  0.63283959    -0.32200
N2841       N  0.82872121  0.78963470  0.65052146     0.14300
C2842       C  0.82722177  0.78093187  0.68335061    -0.32200
H2843       H  0.83162029  0.79851955  0.70400993     0.16300
C2844       C  0.91141285  0.69154448  0.66040529    -0.31100
N2845       N  0.93330313  0.70125859  0.68693097     0.13100
C2846       C  0.91047015  0.71412003  0.71133900    -0.31100
C2847       C  0.81665159  0.64238052  0.67993845    -0.31400
N2848       N  0.80955616  0.63578197  0.71194976     0.13600
H2849       H  0.82671237  0.62391667  0.66211401     0.16200
C2850       C  0.81020986  0.66471876  0.72939141    -0.31400
H2851       H  0.81634597  0.66618244  0.75539814     0.16200
H2852       H  0.91943337  0.72429048  0.73525915     0.16200
H2853       H  0.83715700  0.75895390  0.60646888     0.16300
H2854       H  0.92128965  0.68109353  0.63694272     0.16200
C2855       C  0.79579144  0.86440471  0.60013902     0.86600
C2856       C  0.76604336  0.87381051  0.62482030    -0.53700
C2857       C  0.75097536  0.84694568  0.64035750     0.09500
C2858       C  0.76843813  0.81241765  0.63081080     0.20400
C2859       C  0.82323303  0.84447393  0.62123132    -0.54400
C2860       C  0.80841617  0.81725091  0.63733398     0.09600
C2861       C  0.77954998  0.83664158  0.57631220    -0.53900
C2862       C  0.76569658  0.80936160  0.59268290     0.10200
H2863       H  0.75648543  0.89946850  0.62717152     0.14700
H2864       H  0.75677818  0.78981114  0.64349663     0.00400
H2865       H  0.85161372  0.84859086  0.62148290     0.15000
H2866       H  0.77960641  0.83829866  0.54902691     0.14800
C2867       C  0.82421058  0.55535537  0.75753547     0.86600
C2868       C  0.79301455  0.53528529  0.73944428    -0.53700
C2869       C  0.76462510  0.55619086  0.73111007     0.09500
C2870       C  0.77095595  0.59411423  0.74288772     0.20400
C2871       C  0.83270449  0.58373323  0.73263462    -0.54400
C2872       C  0.80526679  0.60380404  0.72644802     0.09600
C2873       C  0.80617454  0.57357340  0.78864014    -0.53900
C2874       C  0.77876545  0.59472950  0.78070905     0.10200
H2875       H  0.79409728  0.50870173  0.73203405     0.14700
H2876       H  0.75046625  0.61308893  0.73596039     0.00400
H2877       H  0.85910760  0.58959655  0.72286428     0.15000
H2878       H  0.81667573  0.57235683  0.81405312     0.14800
C2879       C  0.65911595  0.83145647  0.69968919     0.30100
C2880       C  0.71788216  0.84805049  0.66212345     0.30100
C2881       C  0.65760529  0.82137294  0.66250187    -0.06100
C2882       C  0.66789474  0.87293667  0.69593665    -0.06900
C2883       C  0.69559094  0.81637854  0.71070054    -0.06800
C2884       C  0.68783566  0.82892010  0.64382557    -0.06100
C2885       C  0.69854254  0.87969386  0.67595330    -0.06900
C2886       C  0.72461082  0.82839759  0.69393663    -0.06800
C2887       C  0.67761122  0.82994935  0.61053594    -0.32200
N2888       N  0.64271409  0.82196983  0.60750926     0.14300
C2889       C  0.63000378  0.82040919  0.63943710    -0.32200
H2890       H  0.60205094  0.82200827  0.64540469     0.16300
C2891       C  0.70422530  0.91460287  0.67342339    -0.31100
N2892       N  0.67842545  0.93205850  0.68964534     0.13100
C2893       C  0.65632729  0.90731384  0.70412736    -0.31100
C2894       C  0.75448745  0.81419389  0.70734807    -0.31400
N2895       N  0.74529726  0.78839866  0.72798327     0.13600
H2896       H  0.78088275  0.82387275  0.70333981     0.16200
C2897       C  0.70910336  0.78823382  0.72786879    -0.31400
H2898       H  0.69416289  0.76679469  0.73567685     0.16200
H2899       H  0.63370637  0.91344298  0.71985505     0.16200
H2900       H  0.69396986  0.83916878  0.59018881     0.16300
H2901       H  0.72637310  0.92724171  0.66162568     0.16200
C2902       C  0.58611974  0.77392628  0.54208162     0.86600
C2903       C  0.57526171  0.75137932  0.57190590    -0.53700
C2904       C  0.60225329  0.74542690  0.59326661     0.09500
C2905       C  0.63761865  0.76111846  0.58325266     0.20400
C2906       C  0.60255560  0.80618068  0.56013279    -0.54400
C2907       C  0.62973756  0.79904787  0.58156424     0.09600
C2908       C  0.61781020  0.75563062  0.52478864    -0.53900
C2909       C  0.64492595  0.74874569  0.54641711     0.10200
H2910       H  0.54858976  0.74360865  0.57830659     0.14700
H2911       H  0.65859280  0.75509469  0.60194990     0.00400
H2912       H  0.59158243  0.83165311  0.55841290     0.15000
H2913       H  0.61788279  0.74760023  0.49859671     0.14800
C2914       C  0.81892700  0.77975471  0.79282570     0.86600
C2915       C  0.84027101  0.75599609  0.76923804    -0.53700
C2916       C  0.82019495  0.73531472  0.74993620     0.09500
C2917       C  0.77865864  0.73710550  0.76087125     0.20400
C2918       C  0.79002980  0.79613384  0.77092167    -0.54400
C2919       C  0.76909300  0.77466534  0.75351886     0.09600
C2920       C  0.79906156  0.75569535  0.81712974    -0.53900
C2921       C  0.77580058  0.73424170  0.80168586     0.10200
H2922       H  0.86879231  0.75760942  0.76537671     0.14700
H2923       H  0.76103342  0.71905697  0.74708947     0.00400
H2924       H  0.78725382  0.82358577  0.76816991     0.15000
H2925       H  0.80160422  0.75623121  0.84422240     0.14800
C2926       C  0.73724037  0.68848157  0.55338888     0.30100
C2927       C  0.67761665  0.72653660  0.54031868     0.30100
C2928       C  0.73715883  0.72516417  0.56625886    -0.06100
C2929       C  0.72875094  0.69470986  0.51350771    -0.06900
C2930       C  0.70108398  0.67376371  0.56636704    -0.06800
C2931       C  0.70825149  0.74439162  0.55817003    -0.06100
C2932       C  0.69731567  0.71404034  0.50763308    -0.06900
C2933       C  0.67175432  0.69327095  0.55989194    -0.06800
C2934       C  0.71781759  0.77811529  0.56215378    -0.32200
N2935       N  0.75048862  0.77982135  0.57621312     0.14300
C2936       C  0.76287215  0.74745102  0.57780394    -0.32200
H2937       H  0.78921201  0.74026348  0.58470423     0.16300
C2938       C  0.69380537  0.71928237  0.97277917    -0.31100
N2939       N  0.72215290  0.70529815  0.95594349     0.13100
C2940       C  0.74279069  0.68975155  0.98038195    -0.31100
C2941       C  0.64212871  0.67640883  0.57273863    -0.31400
N2942       N  0.65204478  0.64796770  0.58964859     0.13600
H2943       H  0.61509161  0.68380168  0.56800945     0.16200
C2944       C  0.68752454  0.64438995  0.58177095    -0.31400
H2945       H  0.70223052  0.62108779  0.58419313     0.16200
H2946       H  0.76676767  0.67570140  0.97473323     0.16200
H2947       H  0.70238112  0.79955491  0.55399288     0.16300
H2948       H  0.67244812  0.73284364  0.96059855     0.16200
C2949       C  0.74589839  0.71402210  0.82185877     0.30100
C2950       C  0.68737134  0.67346395  0.83438359     0.30100
C2951       C  0.74803424  0.67656121  0.80996861    -0.06100
C2952       C  0.73627711  0.70826032  0.86191275    -0.06900
C2953       C  0.70925030  0.72679499  0.80876469    -0.06800
C2954       C  0.71856923  0.65645524  0.81590353    -0.06100
C2955       C  0.70561180  0.68724334  0.86692653    -0.06900
C2956       C  0.68067241  0.70613110  0.81494091    -0.06800
C2957       C  0.72956584  0.62283063  0.81296958    -0.32200
N2958       N  0.76409951  0.62121910  0.80301082     0.14300
C2959       C  0.77607842  0.65403154  0.80456320    -0.32200
H2960       H  0.80387428  0.66092423  0.80542119     0.16300
C2961       C  0.69891647  0.68411341  0.90128413    -0.31100
N2962       N  0.72402610  0.70115407  0.91951511     0.13100
C2963       C  0.74669857  0.71635595  0.89602878    -0.31100
C2964       C  0.65049874  0.72187079  0.80281291    -0.31400
N2965       N  0.65923260  0.75109258  0.78706904     0.13600
H2966       H  0.62390672  0.71323808  0.80713032     0.16200
C2967       C  0.69462192  0.75616258  0.79454895    -0.31400
H2968       H  0.70877655  0.77985560  0.79103023     0.16200
H2969       H  0.76881465  0.73273379  0.90285734     0.16200
H2970       H  0.71409300  0.60104248  0.82060257     0.16300
H2971       H  0.67669204  0.67067478  0.91240380     0.16200
N2972       N  0.97966647  0.51032178  0.97653992    -0.06000
N2973       N  0.97773297  0.53329524  0.00075118    -0.58200
N2974       N  0.52829737  0.96580588  0.92398881    -0.05700
N2975       N  0.56273830  0.96397775  0.91705168    -0.60300
N2976       N  0.01675739  0.49559422  0.91102634    -0.05300
N2977       N  0.04308969  0.51366783  0.89912393    -0.58100
N2978       N  0.49062246  0.97813980  0.99045961    -0.05000
N2979       N  0.49736327  0.97974477  0.02277626    -0.60600
C2980       C  0.48612067  0.51687296  0.52952613     0.96100
C2981       C  0.57170461  0.49411338  0.90472525     0.95900
N2982       N  0.96931740  0.87841832  0.90968728    -0.06200
N2983       N  0.97601220  0.86183447  0.88146660    -0.58700
N2984       N  0.46591345  0.90333786  0.99185447    -0.04400
N2985       N  0.48437861  0.88698249  0.01448761    -0.60000
N2986       N  0.94050297  0.88353989  0.97985735    -0.06300
N2987       N  0.94394656  0.85258842  0.99224096    -0.59000
N2988       N  0.49827312  0.89372741  0.92074787    -0.04000
N2989       N  0.52501149  0.88818619  0.90016324    -0.60100
Mn2990     Mn  0.49637727  0.93479009  0.95751610     1.18400
C2991       C  0.51106905  0.86788488  0.87622249     0.98200
C2992       C  0.47267378  0.85537212  0.51391923     0.98900
N2993       N  0.94727574  0.51563913  0.87058672    -0.06300
N2994       N  0.96268448  0.52373836  0.84160372    -0.62600
N2995       N  0.88442286  0.01849120  0.93669978    -0.05100
N2996       N  0.85854852  0.03609863  0.95074559    -0.63300
N2997       N  0.91624042  0.53720699  0.93786827    -0.05800
N2998       N  0.91243576  0.56544250  0.95507662    -0.62900
N2999       N  0.91484210  0.99786015  0.86811732    -0.04700
N3000       N  0.91137297  0.49675379  0.83258765    -0.63500
Mn3001     Mn  0.96576543  0.51593082  0.92336217     1.10700
C3002       C  0.93965448  0.51139275  0.81787692     0.99400
C3003       C  0.87763191  0.56907220  0.45982093     0.99500
N3004       N  0.86840716  0.91405142  0.95233395    -0.05800
N3005       N  0.85322576  0.90409064  0.98038012    -0.61200
N3006       N  0.88216071  0.93040434  0.87227481    -0.05100
N3007       N  0.87256229  0.93000611  0.84044472    -0.61100
N3008       N  0.89850839  0.90237547  0.88013385    -0.06400
N3009       N  0.90134511  0.88265699  0.85350304    -0.60700
N3010       N  0.85601850  0.94414208  0.94381923    -0.05400
N3011       N  0.83260540  0.95528786  0.96600824    -0.57900
Mn3012     Mn  0.91799303  0.89312325  0.93037768     1.20200
Mn3013     Mn  0.88244478  0.97333751  0.90528423     1.10100
Cl3014     Cl  0.94019967  0.95364585  0.93024386    -0.85900
C3015       C  0.83076201  0.92951430  0.48903859     0.96400
C3016       C  0.88358906  0.89941579  0.82907571     0.96200
C3017       C  0.86327084  0.82470077  0.78285355    -0.12200
C3018       C  0.83942761  0.80971577  0.80612243     0.04800
C3019       C  0.82331049  0.83120843  0.83048916    -0.07500
C3020       C  0.83151171  0.86570783  0.83114721    -0.08200
C3021       C  0.85884535  0.87850968  0.81074935    -0.02800
C3022       C  0.87238592  0.85866240  0.78467270     0.04000
N3023       N  0.89519156  0.87251965  0.75944574     0.66500
H3024       H  0.87294970  0.81132880  0.76088387     0.15400
H3025       H  0.82091330  0.88116262  0.85155404     0.15200
N3026       N  0.79941022  0.81835669  0.85537478     0.74200
O3027       O  0.92804422  0.86658907  0.76132154    -0.39200
O3028       O  0.88199065  0.87881169  0.73095673    -0.39100
O3029       O  0.81171602  0.80611434  0.88223137    -0.39900
O3030       O  0.76646102  0.81646406  0.84944207    -0.39900
C3031       C  0.56176903  0.81242900  0.50000139    -0.12200
C3032       C  0.55582912  0.78302042  0.51851252     0.04800
C3033       C  0.51998444  0.77223081  0.52320148    -0.07500
C3034       C  0.49269045  0.79601292  0.51996095    -0.08200
C3035       C  0.50081046  0.82957332  0.51147733    -0.02800
C3036       C  0.53564317  0.83722456  0.49909120     0.04000
N3037       N  0.54682655  0.87056459  0.48909075     0.66500
H3038       H  0.58880211  0.81966606  0.49341856     0.15400
H3039       H  0.46541565  0.78853793  0.52510969     0.15200
N3040       N  0.51041164  0.73714008  0.52700498     0.74200
O3041       O  0.55785474  0.89081205  0.51164696    -0.39200
O3042       O  0.55883731  0.87416255  0.45967933    -0.39100
O3043       O  0.49279689  0.72833973  0.55263584    -0.39900
O3044       O  0.50769316  0.71916003  0.50065918    -0.39900
C3045       C  0.88349332  0.56645516  0.78254247    -0.12200
C3046       C  0.86118542  0.54188262  0.76666355     0.04800
C3047       C  0.87782542  0.51186404  0.75443077    -0.07500
C3048       C  0.91350814  0.50536685  0.76333595    -0.08200
C3049       C  0.93194151  0.52734634  0.78563281    -0.02800
C3050       C  0.91913000  0.56048535  0.78902199     0.04000
N3051       N  0.93996905  0.58693923  0.80418760     0.66500
H3052       H  0.87348403  0.59160249  0.78875481     0.15400
H3053       H  0.92434533  0.48035932  0.75793524     0.15200
N3054       N  0.85993248  0.48785886  0.73320943     0.74200
O3055       O  0.95452128  0.60856169  0.78516988    -0.39200
O3056       O  0.93418045  0.59495134  0.83452400    -0.39100
O3057       O  0.86699180  0.48799404  0.70213258    -0.39900
O3058       O  0.84085182  0.96245921  0.75965456    -0.39900
C3059       C  0.77814695  0.90960445  0.56116053    -0.12200
C3060       C  0.80610866  0.89558754  0.58013550     0.04800
C3061       C  0.84070840  0.90947124  0.57595238    -0.07500
C3062       C  0.84742200  0.92937876  0.54769244    -0.08200
C3063       C  0.82054770  0.93458478  0.52393154    -0.02800
C3064       C  0.78511850  0.92922700  0.53314888     0.04000
N3065       N  0.75569941  0.93738339  0.00945111     0.66500
H3066       H  0.75080863  0.90170960  0.56542420     0.15400
H3067       H  0.87472206  0.93613159  0.54169543     0.15200
N3068       N  0.86946052  0.90339820  0.59851501     0.74200
O3069       O  0.74489399  0.91534139  0.98851631    -0.39200
O3070       O  0.73478367  0.96082472  0.01843063    -0.39100
O3071       O  0.89459020  0.88449557  0.58875513    -0.39900
O3072       O  0.87579203  0.92546341  0.62101951    -0.39900
C3073       C  0.60116600  0.50500447  0.85553235    -0.12200
C3074       C  0.60553707  0.50323474  0.89021424     0.04800
C3075       C  0.62233092  0.53065995  0.90672953    -0.07500
C3076       C  0.62379982  0.56236129  0.89124730    -0.08200
C3077       C  0.61045428  0.56656858  0.85859695    -0.02800
C3078       C  0.59746524  0.53697540  0.84108659     0.04000
N3079       N  0.58072575  0.53866652  0.80871951     0.66500
H3080       H  0.58992699  0.48329034  0.84214901     0.15400
H3081       H  0.63491877  0.58329632  0.90549629     0.15200
N3082       N  0.63337850  0.52810079  0.94094332     0.74200
O3083       O  0.59771951  0.52856838  0.78311291    -0.39200
O3084       O  0.54716135  0.53818426  0.80762126    -0.39100
O3085       O  0.66622529  0.52562080  0.94695969    -0.39900
O3086       O  0.61312058  0.53936131  0.96376352    -0.39900
C3087       C  0.85098616  0.58340254  0.54867808    -0.12200
C3088       C  0.84871875  0.61881992  0.54930189     0.04800
C3089       C  0.86422744  0.63765701  0.52285970    -0.07500
C3090       C  0.87169878  0.62110490  0.49267961    -0.08200
C3091       C  0.86625790  0.58588774  0.49006003    -0.02800
C3092       C  0.85866812  0.56671955  0.51900450     0.04000
N3093       N  0.85972320  0.53038563  0.51935633     0.66500
H3094       H  0.84578063  0.56803899  0.57052905     0.15400
H3095       H  0.88225087  0.63544061  0.47163073     0.15200
N3096       N  0.87375539  0.67279086  0.52716119     0.74200
O3097       O  0.88789023  0.51627646  0.52929069    -0.39200
O3098       O  0.83024133  0.51254402  0.02434665    -0.39100
O3099       O  0.90288016  0.68018700  0.54128397    -0.39900
O3100       O  0.85114277  0.69592091  0.52239464    -0.39900
C3101       C  0.50856787  0.85158475  0.81634649    -0.12200
C3102       C  0.52904805  0.86130103  0.84431299     0.04800
C3103       C  0.56624599  0.86508606  0.84068991    -0.07500
C3104       C  0.58212337  0.85466106  0.81099817    -0.08200
C3105       C  0.56235824  0.83688236  0.78658584    -0.02800
C3106       C  0.52501396  0.83977824  0.78708688     0.04000
N3107       N  0.50418924  0.83633976  0.75721957     0.66500
H3108       H  0.47977158  0.85286026  0.81721036     0.15400
H3109       H  0.61091273  0.85600234  0.80922230     0.15200
N3110       N  0.58900078  0.87585925  0.86759036     0.74200
O3111       O  0.48083422  0.81316572  0.75565867    -0.39200
O3112       O  0.50072044  0.86224571  0.73884807    -0.39100
O3113       O  0.60459708  0.85333232  0.88456377    -0.39900
O3114       O  0.60255015  0.90532262  0.86637974    -0.39900
C3115       C  0.52037416  0.51341795  0.58197375    -0.12200
C3116       C  0.50189994  0.53365404  0.55905985     0.04800
C3117       C  0.50383278  0.56932120  0.56234843    -0.07500
C3118       C  0.52910931  0.58357705  0.58361083    -0.08200
C3119       C  0.55188893  0.56327377  0.60306164    -0.02800
C3120       C  0.54459168  0.52774192  0.60458723     0.04000
N3121       N  0.55827010  0.50593300  0.63002964     0.66500
H3122       H  0.51674876  0.48598853  0.58189137     0.15400
H3123       H  0.53158610  0.61113494  0.58428350     0.15200
N3124       N  0.98061446  0.59158777  0.54469608     0.74200
O3125       O  0.53917908  0.50076241  0.65568963    -0.39200
O3126       O  0.58029997  0.48328430  0.62145747    -0.39100
O3127       O  0.95435649  0.60385523  0.56041195    -0.39900
O3128       O  0.99264530  0.60751988  0.51961196    -0.39900
loop_ 
_geom_bond_atom_site_label_1 
_geom_bond_atom_site_label_2 
_geom_bond_distance 
_geom_bond_site_symmetry_2 
_ccdc_geom_bond_type 
C1            C2   1.541       .  S
C1            C7   1.543       .  S
C1            C5   1.552       .  S
C1          C382   1.508       .  S
C2            H9   1.079       .  S
C2            C3   1.356       .  D
C3            C4   1.607       .  S
C3           C48   1.582       .  S
C4            C8   1.587       .  S
C4            C6   1.639       .  S
C4           H10   1.108       .  S
C5           H11   1.082       .  S
C5            C6   1.341       .  D
C6           C13   1.613       .  S
C7           H12   1.086       .  S
C7            C8   1.352       .  D
C8          N205   1.485       .  S
C13          C15   1.494       .  S
C13          C17   1.534       .  S
C13          C16   1.639       .  S
C14          C41   1.584       .  S
C14          C18   1.509       .  S
C14          C20   1.529       .  S
C14          C19   1.614       .  S
C15          C23   1.365       .  A
C15          C18   1.379       .  A
C16          C19   1.438       .  A
C16        C1591   1.437   1_455  A
C17          C31   1.386       .  A
C17          C20   1.397       .  A
C18          C21   1.366       .  A
C19        C1589   1.424   1_455  A
C20          C28   1.380       .  A
C21          N22   1.341       .  A
C21          H34   1.062       .  S
N22         C167   1.416       .  S
N22          C23   1.333       .  A
C23          H24   1.078       .  S
C25        C1583   1.424       .  A
C25          N26   1.383       .  A
C25          H35   1.081       .  S
N26          C27   1.392       .  A
N26         N108   1.474       .  S
C27        C1580   1.437       .  A
C27          H33   1.082       .  S
C28          N29   1.355       .  A
C28          H30   1.080       .  S
N29          C85   1.441       .  S
N29          C31   1.354       .  A
C31          H32   1.085       .  S
C36          C37   1.537       .  S
C36          C42   1.555       .  S
C36          C40   1.550       .  S
C36         C368   1.509       .  S
C37          H44   1.084       .  S
C37          C38   1.353       .  D
C38          C39   1.611       .  S
C38         C142   1.588       .  S
C39          C43   1.578       .  S
C39          C41   1.603       .  S
C39          H45   1.105       .  S
C40          H46   1.078       .  S
C40          C41   1.354       .  D
C42          H47   1.087       .  S
C42          C43   1.350       .  D
C43         N228   1.477       .  S
C48          C50   1.484       .  S
C48          C52   1.553       .  S
C48          C51   1.659       .  S
C49         C132   1.565       .  S
C49          C53   1.517       .  S
C49          C55   1.553       .  S
C49          C54   1.558       .  S
C50          C58   1.355       .  A
C50          C53   1.364       .  A
C51          C62   1.442   1_545  A
C51          C54   1.431       .  A
C52          C66   1.401       .  A
C52          C55   1.388       .  A
C53          C56   1.349       .  A
C54         C842   1.398   1_545  A
C55          C63   1.383       .  A
C56          N57   1.341       .  A
C56          H69   1.079       .  S
N57          C88   1.402       .  S
N57          C58   1.345       .  A
C58          H59   1.041       .  S
C60         C836   1.390       .  A
C60          N61   1.366       .  A
C60          H70   1.082       .  S
N61         C844   1.391       .  A
N61         N155   1.450       .  S
C62         N843   1.393       .  A
C62         H850   1.080       .  S
C63          N64   1.362       .  A
C63          H65   1.079       .  S
N64          C76   1.479       .  S
N64          C66   1.360       .  A
C66          H67   1.067       .  S
H68         C844   1.079       .  S
C71          C72   1.529       .  S
C71          C77   1.541       .  S
C71          C75   1.549       .  S
C71         C351   1.493       .  S
C72          H79   1.085       .  S
C72          C73   1.345       .  D
C73          C74   1.636       .  S
C73          C96   1.587       .  S
C74          C78   1.609       .  S
C74          C76   1.575       .  S
C74          H80   1.110       .  S
C75          H81   1.079       .  S
C75          C76   1.351       .  D
C77          H82   1.085       .  S
C77          C78   1.344       .  D
C78         C189   1.577       .  S
C83          C84   1.556       .  S
C83          C89   1.568       .  S
C83          C87   1.515       .  S
C83         C340   1.516       .  S
C84          H91   1.085       .  S
C84          C85   1.369       .  D
C85          C86   1.524       .  S
C86          C90   1.553       .  S
C86          C88   1.504       .  S
C86          H92   1.109       .  S
C87          H93   1.088       .  S
C87          C88   1.325       .  D
C89          H94   1.080       .  S
C89          C90   1.379       .  D
C90         C213   1.533       .  S
C95         C179   1.590       .  S
C95          C97   1.535       .  S
C95          C99   1.496       .  S
C95          C98   1.626       .  S
C96         C100   1.521       .  S
C96         C102   1.491       .  S
C96         C101   1.629       .  S
C97         C105   1.384       .  A
C97         C100   1.394       .  A
C98         C109   1.428       .  A
C98         C101   1.438       .  A
C99         C113   1.358       .  A
C99         C102   1.378       .  A
C100        C103   1.377       .  A
C101        C107   1.433       .  A
C102        C110   1.368       .  A
C103        N104   1.349       .  A
C103        H116   1.078       .  S
N104        C123   1.443       .  S
N104        C105   1.357       .  A
C105        H106   1.082       .  S
C107        N108   1.388       .  A
C107        H117   1.082       .  S
N108        C109   1.387       .  A
C109        H115   1.082       .  S
C110        N111   1.327       .  A
C110        H112   1.079       .  S
N111        C135   1.401       .  S
N111        C113   1.330       .  A
C113        H114   1.061       .  S
C118        C119   1.535       .  S
C118        C124   1.556       .  S
C118        C122   1.557       .  S
C118        C323   1.521       .  S
C119        H126   1.073       .  S
C119        C120   1.352       .  D
C120        C121   1.552       .  S
C120        C143   1.523       .  S
C121        C125   1.518       .  S
C121        C123   1.537       .  S
C121        H127   1.111       .  S
C122        H128   1.079       .  S
C122        C123   1.372       .  D
C124        H129   1.086       .  S
C124        C125   1.352       .  D
C125        N198   1.435       .  S
C130        C131   1.573       .  S
C130        C136   1.575       .  S
C130        C134   1.531       .  S
C130        C309   1.528       .  S
C131        H138   1.082       .  S
C131        C132   1.383       .  D
C132        C133   1.579       .  S
C133        C137   1.534       .  S
C133        C135   1.499       .  S
C133        H139   1.111       .  S
C134        H140   1.088       .  S
C134        C135   1.328       .  D
C136        H141   1.086       .  S
C136        C137   1.364       .  D
C137        N221   1.468       .  S
C142        C144   1.536       .  S
C142        C146   1.558       .  S
C142        C145   1.653       .  S
C143        C147   1.534       .  S
C143        C149   1.506       .  S
C143        C148   1.540       .  S
C144        C152   1.386       .  A
C144        C147   1.393       .  A
C145        C156   1.446       .  A
C145        C148   1.422       .  A
C146        C160   1.399       .  A
C146        C149   1.359       .  A
C147        C150   1.377       .  A
C148        C154   1.387       .  A
C149        C157   1.362       .  A
C150        N151   1.353       .  A
C150        H163   1.078       .  S
N151        C170   1.446       .  S
N151        C152   1.358       .  A
C152        H153   1.080       .  S
C154        N155   1.349       .  A
C154        H164   1.075       .  S
N155        C156   1.395       .  A
C156        H162   1.081       .  S
C157        N158   1.352       .  A
C157        H159   1.069       .  S
N158        C182   1.457       .  S
N158        C160   1.357       .  A
C160        H161   1.053       .  S
C165        C166   1.532       .  S
C165        C171   1.561       .  S
C165        C169   1.573       .  S
C165        C295   1.527       .  S
C166        H173   1.073       .  S
C166        C167   1.345       .  D
C167        C168   1.515       .  S
C168        C172   1.560       .  S
C168        C170   1.518       .  S
C168        H174   1.111       .  S
C169        H175   1.086       .  S
C169        C170   1.363       .  D
C171        H176   1.085   1_554  S
C171        C172   1.370       .  D
C172        C190   1.540       .  S
C177        C178   1.550       .  S
C177        C183   1.545       .  S
C177        C181   1.528       .  S
C177        C281   1.495       .  S
C178        H185   1.083       .  S
C178        C179   1.345       .  D
C179        C180   1.620       .  S
C180        C184   1.632       .  S
C180        C182   1.551       .  S
C180        H186   1.109       .  S
C181        H187   1.090       .  S
C181        C182   1.333       .  D
C183        H188   1.083       .  S
C183        C184   1.359       .  D
C184        C212   1.598       .  S
C189        C191   1.520       .  S
C189        C193   1.555       .  S
C189        C192   1.634       .  S
C190        C194   1.520       .  S
C190        C196   1.533       .  S
C190        C195   1.572       .  S
C191        C199   1.372       .  A
C191        C194   1.376       .  A
C192        C195   1.429       .  A
C192        C594   1.434   1_554  A
C193        C207   1.396       .  A
C193        C196   1.370       .  A
C194        C197   1.376       .  A
C195        C592   1.402   1_554  A
C196        C204   1.385       .  A
C197        N198   1.348       .  A
C197        H210   1.077       .  S
N198        C199   1.353       .  A
C199        H200   1.069       .  S
C201        C586   1.400       .  A
C201        N202   1.370       .  A
C201        H211   1.082       .  S
N202        C203   1.390       .  A
N202        N225   1.455       .  S
C203        C583   1.434       .  A
C203        H209   1.081       .  S
C204        N205   1.359       .  A
C204        H206   1.074       .  S
N205        C207   1.375       .  A
C207        H208   1.075       .  S
C212        C214   1.545       .  S
C212        C216   1.558       .  S
C212        C215   1.652       .  S
C213        C217   1.532       .  S
C213        C219   1.526       .  S
C213        C218   1.552       .  S
C214        C222   1.394       .  A
C214        C217   1.379       .  A
C215        C226   1.445       .  A
C215        C218   1.430       .  A
C216        C230   1.402       .  A
C216        C219   1.368       .  A
C217        C220   1.386       .  A
C218        C224   1.390       .  A
C219        C227   1.383       .  A
C220        N221   1.355       .  A
C220        H233   1.077       .  S
N221        C222   1.363       .  A
C222        H223   1.076       .  S
C224        N225   1.358       .  A
C224        H234   1.081       .  S
N225        C226   1.398       .  A
C226        H232   1.082       .  S
C227        N228   1.351       .  A
C227        H229   1.068       .  S
N228        C230   1.375       .  A
C230        H231   1.079       .  S
N235        N236   1.317       .  A
N235       N2587   1.312   1_545  A
N235       Mn264   2.195       .  S
N236       C2198   1.355       .  A
N237        N238   1.321       .  A
N237       N2585   1.308       .  A
N237       Mn253   2.144   1_455  S
N238       C1026   1.345       .  A
N239        N240   1.302   1_565  A
N239       N2583   1.309       .  A
N239       Mn264   2.127   1_565  S
N240       C1808   1.342   1_545  A
N241        N242   1.314       .  A
N241       N2581   1.315       .  A
N241       Mn253   2.178       .  S
N242       C1416   1.354       .  A
C243       N2191   1.355       .  A
C243       N1415   1.349   1_545  A
C243        C379   1.450   1_655  S
C244       N1020   1.350       .  A
C244       N1804   1.342   1_565  A
C244        C337   1.444   1_565  S
N245        N246   1.315       .  A
N245       N1815   1.314       .  A
N245       Mn275   2.170       .  S
N246       C1818   1.352       .  A
N247        N248   1.312       .  A
N247       N1813   1.315       .  A
N247       Mn253   2.166       .  S
N248        C646   1.338       .  A
N249        N250   1.323       .  A
N249       N1811   1.315       .  A
N249       Mn275   2.189       .  S
N250       C2210   1.353       .  A
N251        N252   1.315   1_655  A
N251       N1809   1.314       .  A
N251       Mn253   2.185       .  S
N252        C254   1.344       .  A
Mn253     Cl1841   2.487       .  S
C254       N1810   1.352   1_455  A
C254        C365   1.463       .  S
C255        N639   1.339       .  A
C255       N2205   1.351   1_554  A
C255        C298   1.472       .  S
N256        N257   1.326       .  A
N256       N1044   1.311   1_545  A
N256       Mn264   2.200       .  S
N257        C265   1.363       .  A
N258        N259   1.316       .  A
N258       N1042   1.305       .  A
N258       Mn276   2.157       .  S
N259       C1439   1.355       .  A
N260        N261   1.305       .  A
N260       N1040   1.306       .  A
N260       Mn264   2.116       .  S
N261        C657   1.339       .  A
N262       N1038   1.312       .  A
N262       N1045   1.303       .  A
N262       Mn276   2.153       .  S
N263        C265   1.341   1_565  A
N263       N1044   1.302       .  A
Mn264     Cl1059   2.521   1_545  S
C265        C312   1.456       .  S
C266       N1432   1.354       .  A
C266        N652   1.339       .  A
C266        C354   1.432       .  S
N267        N268   1.311       .  A
N267        N273   1.318       .  A
N267       Mn275   2.212       .  S
N268        C669   1.352       .  A
N269        N270   1.314       .  A
N269        N271   1.303       .  A
N269       Mn276   2.117       .  S
N270        C279   1.344       .  A
N271        N272   1.311       .  A
N271       Mn275   2.165       .  S
N272        C279   1.354       .  A
N273        N274   1.320       .  A
N273       Mn276   2.174       .  S
N274        C669   1.350       .  A
Mn275      Cl277   2.524       .  S
Mn276      Cl277   2.508       .  S
Cl277     Mn1817   2.487       .  S
Cl277     Mn1046   2.530       .  S
C278        N659   1.352       .  A
C278        N665   1.350       .  A
C278        C326   1.453   1_556  S
C279        C284   1.430       .  S
C280        C281   1.411       .  A
C280        C285   1.372       .  A
C280        H287   1.077       .  S
C281        C282   1.421       .  A
C282        C283   1.390       .  A
C282        N289   1.432       .  S
C283        C284   1.400       .  A
C283        H288   1.085       .  S
C284        C285   1.389       .  A
C285        N286   1.425       .  S
N286        O290   1.260       .  A
N286        O291   1.262       .  A
N289        O293   1.263       .  A
N289        O292   1.262       .  A
C294        C295   1.390   1_556  A
C294        C299   1.388       .  A
C294        H301   1.085       .  S
C295        C296   1.430       .  A
C296        C297   1.399   1_455  A
C296        N303   1.429       .  S
C297        C298   1.391       .  A
C297        H302   1.084       .  S
C298        C299   1.423   1_654  A
C299        N300   1.427       .  S
N300        O304   1.262       .  A
N300        O305   1.260       .  A
N303        O307   1.262   1_455  A
N303        O306   1.263   1_455  A
C308        C309   1.416       .  A
C308        C313   1.383       .  A
C308        H315   1.085       .  S
C309        C310   1.418       .  A
C310        C311   1.408       .  A
C310        N317   1.427   1_545  S
C311        C312   1.411       .  A
C311        H316   1.085   1_545  S
C312        C313   1.397       .  A
C313        N314   1.428       .  S
N314        O318   1.261       .  A
N314        O319   1.262       .  A
N317       O1103   1.262       .  A
N317        O320   1.262       .  A
O321       N1099   1.262       .  A
C322        C323   1.413       .  A
C322        C327   1.385       .  A
C322        H329   1.085       .  S
C323        C324   1.416       .  A
C324        C325   1.396       .  A
C324        N331   1.426       .  S
C325        C326   1.401       .  A
C325        H330   1.085       .  S
C326        C327   1.396       .  A
C327        N719   1.428       .  S
N328        C718   1.427       .  S
N328        O332   1.262       .  A
N328        O333   1.262       .  A
N331        O335   1.262       .  A
N331        O334   1.262       .  A
C336        C337   1.390       .  A
C336        C341   1.391       .  A
C336        H343   1.086   1_545  S
C337        C338   1.408       .  A
C338        C339   1.398       .  A
C338        N345   1.425       .  S
C339        C340   1.401       .  A
C339        H344   1.079       .  S
C340        C341   1.433       .  A
C341        N342   1.434       .  S
N342        O346   1.262       .  A
N342        O347   1.262       .  A
N345        O349   1.262       .  A
N345        O348   1.262       .  A
C350        C351   1.395       .  A
C350        C355   1.374       .  A
C350        H357   1.077       .  S
C351        C352   1.409       .  A
C352        C353   1.388   1_554  A
C352        N359   1.431       .  S
C353        C354   1.401       .  A
C353        H358   1.084       .  S
C354        C355   1.405   1_556  A
C355        N356   1.427       .  S
N356        O360   1.262       .  A
N356        O752   1.262       .  A
N359        O363   1.262       .  A
N359        O362   1.262       .  A
O361        N747   1.262       .  A
C364        C365   1.401       .  A
C364        C369   1.391       .  A
C364        H371   1.083   1_455  S
C365        C366   1.413       .  A
C366        C367   1.385       .  A
C366        N373   1.429       .  S
C367        C368   1.402       .  A
C367        H372   1.085       .  S
C368        C369   1.409       .  A
C369        N370   1.428       .  S
N370        O374   1.262   1_455  A
N370        O375   1.262   1_455  A
N373        O377   1.261       .  A
N373        O376   1.262       .  A
C378        C379   1.399       .  A
C378        C383   1.386       .  A
C378        H385   1.084   1_545  S
C379        C380   1.398       .  A
C380        C381   1.383       .  A
C380       N1951   1.428   1_455  S
C381        C382   1.410       .  A
C381        H386   1.078       .  S
C382        C383   1.419       .  A
C383        N384   1.432       .  S
N384        O388   1.262   1_545  A
N384        O389   1.263       .  A
N387       C1944   1.428       .  S
N387        O391   1.262       .  A
N387        O390   1.262       .  A
C392        C393   1.539       .  S
C392        C398   1.545       .  S
C392        C396   1.551       .  S
C392        C773   1.508       .  S
C393        H400   1.078       .  S
C393        C394   1.355       .  D
C394        C395   1.608       .  S
C394        C439   1.582       .  S
C395        C399   1.585       .  S
C395        C397   1.637       .  S
C395        H401   1.108       .  S
C396        H402   1.083       .  S
C396        C397   1.341       .  D
C397        C404   1.610       .  S
C398        H403   1.086       .  S
C398        C399   1.354       .  D
C399        N596   1.485       .  S
C404        C406   1.498       .  S
C404        C408   1.531       .  S
C404        C407   1.640       .  S
C405        C432   1.582       .  S
C405        C409   1.510       .  S
C405        C411   1.526       .  S
C405        C410   1.613       .  S
C406        C414   1.369       .  A
C406        C409   1.382       .  A
C407       C1982   1.436   1_455  A
C407        C410   1.439       .  A
C408        C422   1.386       .  A
C408        C411   1.395       .  A
C409        C412   1.368       .  A
C410       C1980   1.423   1_455  A
C411        C419   1.380       .  A
C412        N413   1.341       .  A
C412        H425   1.065       .  S
N413        C558   1.421       .  S
N413        C414   1.334       .  A
C414        H415   1.078       .  S
C416       C1974   1.423       .  A
C416        N417   1.383       .  A
C416        H426   1.081       .  S
N417        C418   1.392       .  A
N417        N499   1.473       .  S
C418       C1971   1.436       .  A
C418        H424   1.082       .  S
C419        N420   1.354       .  A
C419        H421   1.080       .  S
N420        C476   1.441       .  S
N420        C422   1.352       .  A
C422        H423   1.088       .  S
C427        C428   1.535       .  S
C427        C433   1.555       .  S
C427        C431   1.548       .  S
C427        C759   1.507       .  S
C428        H435   1.084       .  S
C428        C429   1.352       .  D
C429        C430   1.609       .  S
C429        C533   1.582       .  S
C430        C434   1.580       .  S
C430        C432   1.604       .  S
C430        H436   1.106       .  S
C431        H437   1.077       .  S
C431        C432   1.353       .  D
C433        H438   1.087       .  S
C433        C434   1.349       .  D
C434        N619   1.478       .  S
C439        C441   1.483       .  S
C439        C443   1.551       .  S
C439        C442   1.661       .  S
C440        C523   1.564       .  S
C440        C444   1.517       .  S
C440        C446   1.552       .  S
C440        C445   1.555       .  S
C441        C449   1.355       .  A
C441        C444   1.364       .  A
C442        C453   1.442   1_545  A
C442        C445   1.431       .  A
C443        C457   1.400       .  A
C443        C446   1.388       .  A
C444        C447   1.349       .  A
C445       C1233   1.396   1_545  A
C446        C454   1.381       .  A
C447        N448   1.339       .  A
C447        H460   1.081       .  S
N448        C479   1.401       .  S
N448        C449   1.349       .  A
C449        H450   1.001       .  S
C451       C1227   1.389       .  A
C451        N452   1.365       .  A
C451        H461   1.082       .  S
N452       C1235   1.390       .  A
N452        N546   1.449       .  S
C453       N1234   1.393       .  A
C453       H1241   1.080       .  S
C454        N455   1.362       .  A
C454        H456   1.079       .  S
N455        C467   1.477       .  S
N455        C457   1.360       .  A
C457        H458   1.067       .  S
H459       C1235   1.078       .  S
C462        C463   1.528       .  S
C462        C468   1.541       .  S
C462        C466   1.548       .  S
C462        C742   1.492       .  S
C463        H470   1.085       .  S
C463        C464   1.345       .  D
C464        C465   1.635       .  S
C464        C487   1.585       .  S
C465        C469   1.607       .  S
C465        C467   1.574       .  S
C465        H471   1.110       .  S
C466        H472   1.078       .  S
C466        C467   1.350       .  D
C468        H473   1.085       .  S
C468        C469   1.345       .  D
C469        C580   1.575       .  S
C474        C475   1.556       .  S
C474        C480   1.568       .  S
C474        C478   1.517       .  S
C474        C731   1.515       .  S
C475        H482   1.085       .  S
C475        C476   1.368       .  D
C476        C477   1.524       .  S
C477        C481   1.554       .  S
C477        C479   1.502       .  S
C477        H483   1.109       .  S
C478        H484   1.088       .  S
C478        C479   1.324       .  D
C480        H485   1.080       .  S
C480        C481   1.379       .  D
C481        C604   1.532       .  S
C486        C570   1.589       .  S
C486        C488   1.536       .  S
C486        C490   1.496       .  S
C486        C489   1.628       .  S
C487        C491   1.523       .  S
C487        C493   1.490       .  S
C487        C492   1.624       .  S
C488        C496   1.385       .  A
C488        C491   1.395       .  A
C489        C500   1.429       .  A
C489        C492   1.437       .  A
C490        C504   1.356       .  A
C490        C493   1.376       .  A
C491        C494   1.378       .  A
C492        C498   1.431       .  A
C493        C501   1.368       .  A
C494        N495   1.350       .  A
C494        H507   1.079       .  S
N495        C514   1.443       .  S
N495        C496   1.357       .  A
C496        H497   1.081       .  S
C498        N499   1.387       .  A
C498        H508   1.081       .  S
N499        C500   1.388       .  A
C500        H506   1.082       .  S
C501        N502   1.328       .  A
C501        H503   1.078       .  S
N502        C526   1.401       .  S
N502        C504   1.328       .  A
C504        H505   1.078       .  S
C509        C510   1.533       .  S
C509        C515   1.557       .  S
C509        C513   1.557       .  S
C509        C714   1.520       .  S
C510        H517   1.074       .  S
C510        C511   1.349       .  D
C511        C512   1.551       .  S
C511        C534   1.518       .  S
C512        C516   1.519       .  S
C512        C514   1.536       .  S
C512        H518   1.111       .  S
C513        H519   1.079       .  S
C513        C514   1.374       .  D
C515        H520   1.086       .  S
C515        C516   1.353       .  D
C516        N589   1.436       .  S
C521        C522   1.572       .  S
C521        C527   1.575       .  S
C521        C525   1.531       .  S
C521        C700   1.528       .  S
C522        H529   1.082       .  S
C522        C523   1.382       .  D
C523        C524   1.579       .  S
C524        C528   1.533       .  S
C524        C526   1.499       .  S
C524        H530   1.110       .  S
C525        H531   1.089       .  S
C525        C526   1.328       .  D
C527        H532   1.086       .  S
C527        C528   1.364       .  D
C528        N612   1.468       .  S
C533        C535   1.531       .  S
C533        C537   1.556       .  S
C533        C536   1.652       .  S
C534        C538   1.534       .  S
C534        C540   1.507       .  S
C534        C539   1.539       .  S
C535        C543   1.384       .  A
C535        C538   1.391       .  A
C536        C547   1.445       .  A
C536        C539   1.421       .  A
C537        C551   1.398       .  A
C537        C540   1.359       .  A
C538        C541   1.377       .  A
C539        C545   1.387       .  A
C540        C548   1.363       .  A
C541        N542   1.352       .  A
C541        H554   1.078       .  S
N542        C561   1.446       .  S
N542        C543   1.357       .  A
C543        H544   1.078       .  S
C545        N546   1.350       .  A
C545        H555   1.075       .  S
N546        C547   1.394       .  A
C547        H553   1.081       .  S
C548        N549   1.352       .  A
C548        H550   1.070       .  S
N549        C573   1.457       .  S
N549        C551   1.357       .  A
C551        H552   1.055       .  S
C556        C557   1.539       .  S
C556        C562   1.556       .  S
C556        C560   1.574       .  S
C556        C686   1.529       .  S
C557        H564   1.077       .  S
C557        C558   1.348       .  D
C558        C559   1.517       .  S
C559        C563   1.559       .  S
C559        C561   1.520       .  S
C559        H565   1.111       .  S
C560        H566   1.086       .  S
C560        C561   1.361       .  D
C562        H567   1.085       .  S
C562        C563   1.368       .  D
C563        C581   1.535       .  S
C568        C569   1.549       .  S
C568        C574   1.545       .  S
C568        C572   1.531       .  S
C568        C672   1.494       .  S
C569        H576   1.083       .  S
C569        C570   1.343       .  D
C570        C571   1.620       .  S
C571        C575   1.633       .  S
C571        C573   1.550       .  S
C571        H577   1.109       .  S
C572        H578   1.089       .  S
C572        C573   1.334       .  D
C574        H579   1.082       .  S
C574        C575   1.359       .  D
C575        C603   1.599       .  S
C580        C582   1.521       .  S
C580        C584   1.556       .  S
C580        C583   1.635       .  S
C581        C585   1.519       .  S
C581        C587   1.534       .  S
C581        C586   1.569       .  S
C582        C590   1.373       .  A
C582        C585   1.375       .  A
C583        C586   1.428       .  A
C584        C598   1.397       .  A
C584        C587   1.370       .  A
C585        C588   1.376       .  A
C587        C595   1.386       .  A
C588        N589   1.348       .  A
C588        H601   1.077       .  S
N589        C590   1.353       .  A
C590        H591   1.068       .  S
C592        N593   1.372       .  A
C592        H602   1.082       .  S
N593        C594   1.390       .  A
N593        N616   1.456       .  S
C594        H600   1.081       .  S
C595        N596   1.359       .  A
C595        H597   1.074       .  S
N596        C598   1.375       .  A
C598        H599   1.075       .  S
C603        C605   1.546       .  S
C603        C607   1.559       .  S
C603        C606   1.653       .  S
C604        C608   1.533       .  S
C604        C610   1.525       .  S
C604        C609   1.552       .  S
C605        C613   1.395       .  A
C605        C608   1.379       .  A
C606        C617   1.446       .  A
C606        C609   1.430       .  A
C607        C621   1.402       .  A
C607        C610   1.366       .  A
C608        C611   1.386       .  A
C609        C615   1.390       .  A
C610        C618   1.382       .  A
C611        N612   1.355       .  A
C611        H624   1.077       .  S
N612        C613   1.364       .  A
C613        H614   1.081       .  S
C615        N616   1.358       .  A
C615        H625   1.081       .  S
N616        C617   1.398       .  A
C617        H623   1.082       .  S
C618        N619   1.350       .  A
C618        H620   1.068       .  S
N619        C621   1.376       .  A
C621        H622   1.078       .  S
N626        N627   1.316   1_556  A
N626       N2978   1.313   1_545  A
N626       Mn655   2.195       .  S
N627       C1807   1.355       .  A
N628       N2976   1.308       .  A
N628        N629   1.321       .  A
N628       Mn644   2.143   1_455  S
N629       C1417   1.345       .  A
N630       N2974   1.308       .  A
N630        N631   1.301   1_565  A
N630       Mn655   2.120   1_565  S
N631       C2199   1.341   1_545  A
N632       N2972   1.315       .  A
N632        N633   1.313   1_556  A
N632       Mn644   2.180       .  S
N633       C1025   1.355       .  A
C634       N1800   1.355       .  A
C634       N1024   1.349   1_545  A
C634        C770   1.451   1_655  S
C635       N1411   1.351       .  A
C635       N2195   1.341   1_565  A
C635        C728   1.444   1_565  S
N636       N2206   1.314       .  A
N636        N637   1.315       .  A
N636       Mn666   2.174       .  S
N637       C2209   1.352       .  A
N638        N639   1.312   1_556  A
N638       N2204   1.315       .  A
N638       Mn644   2.166       .  S
N640       N2202   1.315       .  A
N640        N641   1.322       .  A
N640       Mn666   2.181       .  S
N641       C1819   1.351   1_556  A
N642       N2200   1.314       .  A
N642        N643   1.315   1_655  A
N642       Mn644   2.175       .  S
N643        C645   1.343       .  A
Mn644     Cl2232   2.487       .  S
C645       N2201   1.352   1_455  A
C645        C756   1.460       .  S
C646       N1814   1.353       .  A
C646        C689   1.477   1_655  S
N647        N648   1.325       .  A
N647       N1435   1.311   1_545  A
N647       Mn655   2.198       .  S
N648        C656   1.363       .  A
N649       N1433   1.305       .  A
N649        N650   1.316       .  A
N649       Mn667   2.151       .  S
N650       C1048   1.354       .  A
N651       N1431   1.305       .  A
N651        N652   1.305       .  A
N651       Mn655   2.113       .  S
N653       N1429   1.312       .  A
N653       N1436   1.303       .  A
N653       Mn667   2.153       .  S
N654        C656   1.341   1_565  A
N654       N1435   1.303       .  A
Mn655     Cl1450   2.517   1_545  S
C656        C703   1.456       .  S
C657       N1041   1.354       .  A
C657        C745   1.432       .  S
N658        N659   1.311       .  A
N658        N664   1.318       .  A
N658       Mn666   2.213       .  S
N660        N661   1.313       .  A
N660        N662   1.302       .  A
N660       Mn667   2.113       .  S
N661        C670   1.343       .  A
N662        N663   1.310       .  A
N662       Mn666   2.161       .  S
N663        C670   1.354       .  A
N664        N665   1.320       .  A
N664       Mn667   2.171       .  S
Mn666      Cl668   2.522       .  S
Mn667      Cl668   2.509       .  S
Cl668     Mn2208   2.487       .  S
Cl668     Mn1437   2.529       .  S
C669        C717   1.453       .  S
C670        C675   1.428       .  S
C671        C672   1.412       .  A
C671        C676   1.372       .  A
C671        H678   1.076       .  S
C672        C673   1.421       .  A
C673        C674   1.389       .  A
C673        N680   1.431       .  S
C674        C675   1.401       .  A
C674        H679   1.085       .  S
C675        C676   1.387       .  A
C676        N677   1.425       .  S
N677        O681   1.259       .  A
N677        O682   1.262       .  A
N680        O684   1.263       .  A
N680        O683   1.262       .  A
C685        C686   1.392       .  A
C685        C690   1.390       .  A
C685        H692   1.085       .  S
C686        C687   1.425       .  A
C687        C688   1.400   1_455  A
C687        N694   1.430       .  S
C688        C689   1.394   1_655  A
C688        H693   1.084       .  S
C689        C690   1.427       .  A
C690        N691   1.430       .  S
N691        O695   1.262       .  A
N691        O696   1.261       .  A
N694        O698   1.262       .  A
N694        O697   1.263   1_455  A
C699        C700   1.416       .  A
C699        C704   1.383       .  A
C699        H706   1.085       .  S
C700        C701   1.418       .  A
C701        C702   1.408       .  A
C701        N708   1.427   1_545  S
C702        C703   1.410       .  A
C702        H707   1.085   1_545  S
C703        C704   1.397       .  A
C704        N705   1.428       .  S
N705        O709   1.261       .  A
N705        O710   1.263       .  A
N708       O1494   1.262       .  A
N708        O711   1.262       .  A
O712       N1490   1.262       .  A
C713        C714   1.413       .  A
C713        C718   1.384       .  A
C713        H720   1.085       .  S
C714        C715   1.416       .  A
C715        C716   1.397       .  A
C715        N722   1.426       .  S
C716        C717   1.402       .  A
C716        H721   1.085       .  S
C717        C718   1.396       .  A
N719        O723   1.262   1_554  A
N719        O724   1.262       .  A
N722        O726   1.262       .  A
N722        O725   1.262       .  A
C727        C728   1.391       .  A
C727        C732   1.391       .  A
C727        H734   1.086   1_545  S
C728        C729   1.408       .  A
C729        C730   1.398       .  A
C729        N736   1.425       .  S
C730        C731   1.401       .  A
C730        H735   1.079       .  S
C731        C732   1.432       .  A
C732        N733   1.434       .  S
N733        O737   1.262       .  A
N733        O738   1.262       .  A
N736        O740   1.262       .  A
N736        O739   1.262       .  A
C741        C742   1.396       .  A
C741        C746   1.374       .  A
C741        H748   1.076       .  S
C742        C743   1.409       .  A
C743        C744   1.387       .  A
C743        N750   1.432       .  S
C744        C745   1.401       .  A
C744        H749   1.084       .  S
C745        C746   1.404       .  A
C746        N747   1.427       .  S
N747        O751   1.262       .  A
N750        O754   1.262       .  A
N750        O753   1.262       .  A
C755        C756   1.400       .  A
C755        C760   1.390       .  A
C755        H762   1.082   1_455  S
C756        C757   1.413       .  A
C757        C758   1.384       .  A
C757        N764   1.429       .  S
C758        C759   1.402       .  A
C758        H763   1.085       .  S
C759        C760   1.409       .  A
C760        N761   1.428       .  S
N761        O765   1.262   1_455  A
N761        O766   1.262   1_455  A
N764        O768   1.262       .  A
N764        O767   1.262       .  A
C769        C770   1.400       .  A
C769        C774   1.386       .  A
C769        H776   1.084   1_545  S
C770        C771   1.398       .  A
C771        C772   1.383       .  A
C771       N2342   1.428   1_455  S
C772        C773   1.410       .  A
C772        H777   1.079       .  S
C773        C774   1.419       .  A
C774        N775   1.431       .  S
N775        O779   1.262   1_545  A
N775        O780   1.262       .  A
N778       C2335   1.428       .  S
N778        O782   1.262       .  A
N778        O781   1.262       .  A
C783        C784   1.546       .  S
C783        C789   1.562       .  S
C783        C787   1.539       .  S
C783       C1164   1.519       .  S
C784        H791   1.072       .  S
C784        C785   1.361       .  D
C785        C786   1.607       .  S
C785        C830   1.592       .  S
C786        C790   1.584       .  S
C786        C788   1.643       .  S
C786        H792   1.108       .  S
C787        H793   1.086       .  S
C787        C788   1.342       .  D
C788        C795   1.616       .  S
C789        H794   1.086       .  S
C789        C790   1.360       .  D
C790        N987   1.492       .  S
C795        C797   1.495       .  S
C795        C799   1.531       .  S
C795        C798   1.639       .  S
C796        C823   1.600       .  S
C796        C800   1.512       .  S
C796        C802   1.536       .  S
C796        C801   1.618       .  S
C797        C805   1.366       .  A
C797        C800   1.382       .  A
C798       C2373   1.436   1_455  A
C798        C801   1.441       .  A
C799        C813   1.386       .  A
C799        C802   1.399       .  A
C800        C803   1.367       .  A
C801       C2371   1.426   1_455  A
C802        C810   1.384       .  A
C803        N804   1.341       .  A
C803        H816   1.066       .  S
N804        C949   1.419       .  S
N804        C805   1.334       .  A
C805        H806   1.078       .  S
C807       C2365   1.426       .  A
C807        N808   1.384       .  A
C807        H817   1.082       .  S
N808        C809   1.392       .  A
N808        N890   1.474       .  S
C809       C2362   1.436       .  A
C809        H815   1.082       .  S
C810        N811   1.359       .  A
C810        H812   1.081       .  S
N811        C867   1.444       .  S
N811        C813   1.353       .  A
C813        H814   1.083       .  S
C818        C819   1.533       .  S
C818        C824   1.558       .  S
C818        C822   1.554       .  S
C818       C1150   1.510       .  S
C819        H826   1.085       .  S
C819        C820   1.349       .  D
C820        C821   1.620       .  S
C820        C924   1.593       .  S
C821        C825   1.577       .  S
C821        C823   1.614       .  S
C821        H827   1.107       .  S
C822        H828   1.080       .  S
C822        C823   1.362       .  D
C824        H829   1.087       .  S
C824        C825   1.347       .  D
C825       N1010   1.478       .  S
C830        C832   1.483       .  S
C830        C834   1.556       .  S
C830        C833   1.656       .  S
C831        C914   1.572       .  S
C831        C835   1.517       .  S
C831        C837   1.552       .  S
C831        C836   1.547       .  S
C832        C840   1.354       .  A
C832        C835   1.365       .  A
C833        C844   1.437       .  A
C833        C836   1.432       .  A
C834        C848   1.399       .  A
C834        C837   1.394       .  A
C835        C838   1.347       .  A
C837        C845   1.381       .  A
C838        N839   1.341       .  A
C838        H851   1.077       .  S
N839        C870   1.399       .  S
N839        C840   1.342       .  A
C840        H841   1.063       .  S
C842        N843   1.370       .  A
C842        H852   1.082       .  S
N843        N937   1.458       .  S
C845        N846   1.360       .  A
C845        H847   1.080       .  S
N846        C858   1.475       .  S
N846        C848   1.361       .  A
C848        H849   1.069       .  S
C853        C854   1.530       .  S
C853        C859   1.539       .  S
C853        C857   1.551       .  S
C853       C1133   1.492       .  S
C854        H861   1.085       .  S
C854        C855   1.345       .  D
C855        C856   1.637       .  S
C855        C878   1.591       .  S
C856        C860   1.604       .  S
C856        C858   1.569       .  S
C856        H862   1.110       .  S
C857        H863   1.079       .  S
C857        C858   1.355       .  D
C859        H864   1.085       .  S
C859        C860   1.342       .  D
C860        C971   1.570       .  S
C865        C866   1.559       .  S
C865        C871   1.566       .  S
C865        C869   1.513       .  S
C865       C1122   1.515       .  S
C866        H873   1.085       .  S
C866        C867   1.373       .  D
C867        C868   1.524       .  S
C868        C872   1.553       .  S
C868        C870   1.503       .  S
C868        H874   1.108       .  S
C869        H875   1.088       .  S
C869        C870   1.323       .  D
C871        H876   1.079       .  S
C871        C872   1.373       .  D
C872        C995   1.529       .  S
C877        C961   1.588       .  S
C877        C879   1.526       .  S
C877        C881   1.492       .  S
C877        C880   1.629       .  S
C878        C882   1.524       .  S
C878        C884   1.489       .  S
C878        C883   1.625       .  S
C879        C887   1.376       .  A
C879        C882   1.398       .  A
C880        C891   1.429       .  A
C880        C883   1.437       .  A
C881        C895   1.350       .  A
C881        C884   1.377       .  A
C882        C885   1.375       .  A
C883        C889   1.432       .  A
C884        C892   1.363       .  A
C885        N886   1.349       .  A
C885        H898   1.080       .  S
N886        C905   1.433       .  S
N886        C887   1.352       .  A
C887        H888   1.081       .  S
C889        N890   1.388       .  A
C889        H899   1.081       .  S
N890        C891   1.388       .  A
C891        H897   1.082       .  S
C892        N893   1.326       .  A
C892        H894   1.079       .  S
N893        C917   1.392       .  S
N893        C895   1.326       .  A
C895        H896   1.061       .  S
C900        C901   1.530       .  S
C900        C906   1.561       .  S
C900        C904   1.548       .  S
C900       C1105   1.512       .  S
C901        H908   1.074       .  S
C901        C902   1.348       .  D
C902        C903   1.553       .  S
C902        C925   1.515       .  S
C903        C907   1.522       .  S
C903        C905   1.536       .  S
C903        H909   1.111       .  S
C904        H910   1.078       .  S
C904        C905   1.365       .  D
C906        H911   1.086       .  S
C906        C907   1.357       .  D
C907        N980   1.442       .  S
C912        C913   1.581       .  S
C912        C918   1.576       .  S
C912        C916   1.526       .  S
C912       C1091   1.534       .  S
C913        H920   1.083       .  S
C913        C914   1.391       .  D
C914        C915   1.574       .  S
C915        C919   1.530       .  S
C915        C917   1.491       .  S
C915        H921   1.110       .  S
C916        H922   1.089       .  S
C916        C917   1.325       .  D
C918        H923   1.086       .  S
C918        C919   1.364       .  D
C919       N1003   1.468       .  S
C924        C926   1.530       .  S
C924        C928   1.558       .  S
C924        C927   1.668       .  S
C925        C929   1.535       .  S
C925        C931   1.507       .  S
C925        C930   1.540       .  S
C926        C934   1.385       .  A
C926        C929   1.388       .  A
C927        C938   1.455       .  A
C927        C930   1.423       .  A
C928        C942   1.398       .  A
C928        C931   1.360       .  A
C929        C932   1.379       .  A
C930        C936   1.390       .  A
C931        C939   1.366       .  A
C932        N933   1.353       .  A
C932        H945   1.078       .  S
N933        C952   1.448       .  S
N933        C934   1.357       .  A
C934        H935   1.079       .  S
C936        N937   1.350       .  A
C936        H946   1.075       .  S
N937        C938   1.401       .  A
C938        H944   1.081       .  S
C939        N940   1.350       .  A
C939        H941   1.072       .  S
N940        C964   1.459       .  S
N940        C942   1.359       .  A
C942        H943   1.055       .  S
C947        C948   1.536       .  S
C947        C953   1.551       .  S
C947        C951   1.575       .  S
C947       C1077   1.520       .  S
C948        H955   1.077       .  S
C948        C949   1.346       .  D
C949        C950   1.516       .  S
C950        C954   1.563       .  S
C950        C952   1.520       .  S
C950        H956   1.111       .  S
C951        H957   1.086       .  S
C951        C952   1.363       .  D
C953        H958   1.085   1_554  S
C953        C954   1.363       .  D
C954        C972   1.528       .  S
C959        C960   1.545       .  S
C959        C965   1.545       .  S
C959        C963   1.536       .  S
C959       C1063   1.495       .  S
C960        H967   1.084       .  S
C960        C961   1.343       .  D
C961        C962   1.621       .  S
C962        C966   1.630       .  S
C962        C964   1.549       .  S
C962        H968   1.109       .  S
C963        H969   1.089       .  S
C963        C964   1.338       .  D
C965        H970   1.081       .  S
C965        C966   1.356       .  D
C966        C994   1.594       .  S
C971        C973   1.524       .  S
C971        C975   1.562       .  S
C971        C974   1.636       .  S
C972        C976   1.518       .  S
C972        C978   1.538       .  S
C972        C977   1.572       .  S
C973        C981   1.377       .  A
C973        C976   1.367       .  A
C974       C1376   1.435   1_554  A
C974        C977   1.427       .  A
C975        C989   1.402       .  A
C975        C978   1.370       .  A
C976        C979   1.378       .  A
C977       C1374   1.403   1_554  A
C978        C986   1.390       .  A
C979        N980   1.350       .  A
C979        H992   1.076       .  S
N980        C981   1.356       .  A
C981        H982   1.068       .  S
C983       C1368   1.402       .  A
C983        N984   1.371       .  A
C983        H993   1.082       .  S
N984        C985   1.390       .  A
N984       N1007   1.456       .  S
C985       C1365   1.435       .  A
C985        H991   1.081       .  S
C986        N987   1.360       .  A
C986        H988   1.075       .  S
N987        C989   1.377       .  A
C989        H990   1.076       .  S
C994        C996   1.543       .  S
C994        C998   1.559       .  S
C994        C997   1.648       .  S
C995        C999   1.535       .  S
C995       C1001   1.524       .  S
C995       C1000   1.556       .  S
C996       C1004   1.394       .  A
C996        C999   1.379       .  A
C997       C1008   1.443       .  A
C997       C1000   1.429       .  A
C998       C1012   1.401       .  A
C998       C1001   1.365       .  A
C999       C1002   1.388       .  A
C1000      C1006   1.393       .  A
C1001      C1009   1.383       .  A
C1002      N1003   1.357       .  A
C1002      H1015   1.076       .  S
N1003      C1004   1.362       .  A
C1004      H1005   1.079       .  S
C1006      N1007   1.360       .  A
C1006      H1016   1.081       .  S
N1007      C1008   1.397       .  A
C1008      H1014   1.082       .  S
C1009      N1010   1.349       .  A
C1009      H1011   1.067       .  S
N1010      C1012   1.376       .  A
C1012      H1013   1.078       .  S
N1017      N1018   1.316       .  A
N1017      N1805   1.315       .  A
N1017     Mn1046   2.192       .  S
N1018      C2980   1.352       .  A
N1019      N1803   1.309       .  A
N1019      N1020   1.325       .  A
N1019     Mn1035   2.167   1_455  S
N1021      N1801   1.308       .  A
N1021      N1022   1.303       .  A
N1021     Mn1046   2.132       .  S
N1022      C2590   1.345       .  A
N1023      N1799   1.312   1_565  A
N1023      N1024   1.310       .  A
N1023     Mn1035   2.149       .  S
C1025      N2973   1.352       .  A
C1025      C1161   1.465   1_655  S
C1026      N2586   1.345       .  A
C1026      C1119   1.439       .  S
N1027      N2597   1.313       .  A
N1027      N1028   1.317       .  A
N1027     Mn1057   2.173       .  S
N1028      C2600   1.353       .  A
N1029      N1030   1.309       .  A
N1029      N2595   1.312       .  A
N1029     Mn1035   2.166       .  S
N1030      C1428   1.338       .  A
N1031      N2593   1.312       .  A
N1031      N1032   1.320       .  A
N1031     Mn1057   2.179       .  S
N1032      C2992   1.353       .  A
N1033      N2591   1.313       .  A
N1033      N1034   1.313   1_655  A
N1033     Mn1035   2.173       .  S
N1034      C1036   1.342       .  A
Mn1035    Cl2623   2.485       .  S
C1036      N2592   1.353   1_455  A
C1036      C1147   1.459       .  S
C1037      N1421   1.339       .  A
C1037      N2987   1.352   1_554  A
C1037      C1080   1.470   1_655  S
N1038      N1039   1.327       .  A
N1038     Mn1046   2.207       .  S
N1039      C1047   1.364       .  A
N1040      N1041   1.316       .  A
N1040     Mn1058   2.157   1_545  S
N1042      N1043   1.306       .  A
N1042     Mn1046   2.118       .  S
N1043      C1439   1.340       .  A
N1044     Mn1058   2.142       .  S
N1045      C1047   1.341       .  A
C1047      C1094   1.460       .  S
C1048      N1434   1.340       .  A
C1048      C1136   1.431       .  S
N1049      N1050   1.312       .  A
N1049      N1055   1.317       .  A
N1049     Mn1057   2.215       .  S
N1050      C1451   1.353       .  A
N1051      N1052   1.315       .  A
N1051      N1053   1.302       .  A
N1051     Mn1058   2.125       .  S
N1052      C1061   1.346       .  A
N1053      N1054   1.311       .  A
N1053     Mn1057   2.162       .  S
N1054      C1061   1.355       .  A
N1055      N1056   1.319       .  A
N1055     Mn1058   2.158       .  S
N1056      C1451   1.346       .  A
Mn1057    Cl1059   2.518       .  S
Mn1058    Cl1059   2.510       .  S
Cl1059    Mn2599   2.485       .  S
C1060      N1441   1.352       .  A
C1060      N1447   1.346       .  A
C1060      C1108   1.449   1_556  S
C1061      C1066   1.432       .  S
C1062      C1063   1.415       .  A
C1062      C1067   1.375       .  A
C1062      H1069   1.079       .  S
C1063      C1064   1.417       .  A
C1064      C1065   1.386       .  A
C1064      N1071   1.428       .  S
C1065      C1066   1.400       .  A
C1065      H1070   1.085       .  S
C1066      C1067   1.389       .  A
C1067      N1068   1.427       .  S
N1068      O1072   1.260       .  A
N1068      O1073   1.263       .  A
N1071      O1075   1.262       .  A
N1071      O1074   1.262       .  A
C1076      C1077   1.389   1_556  A
C1076      C1081   1.386       .  A
C1076      H1083   1.085       .  S
C1077      C1078   1.422       .  A
C1078      C1079   1.397   1_455  A
C1078      N1085   1.430       .  S
C1079      C1080   1.394   1_655  A
C1079      H1084   1.084       .  S
C1080      C1081   1.428   1_554  A
C1081      N1082   1.430       .  S
N1082      O1086   1.262   1_556  A
N1082      O1087   1.260       .  A
N1085      O1089   1.262       .  A
N1085      O1088   1.263   1_455  A
C1090      C1091   1.420       .  A
C1090      C1095   1.386       .  A
C1090      H1097   1.085       .  S
C1091      C1092   1.418       .  A
C1092      C1093   1.411       .  A
C1092      N1099   1.426       .  S
C1093      C1094   1.411       .  A
C1093      H1098   1.084       .  S
C1094      C1095   1.395       .  A
C1095      N1096   1.428       .  S
N1096      O1100   1.262       .  A
N1096      O1101   1.262       .  A
N1099      O1102   1.262       .  A
C1104      C1105   1.410       .  A
C1104      C1109   1.382       .  A
C1104      H1111   1.085       .  S
C1105      C1106   1.417       .  A
C1106      C1107   1.394       .  A
C1106      N1113   1.427       .  S
C1107      C1108   1.400       .  A
C1107      H1112   1.085       .  S
C1108      C1109   1.395       .  A
C1109      N1501   1.427       .  S
N1110      C1500   1.427       .  S
N1110      O1114   1.262       .  A
N1110      O1115   1.262       .  A
N1113      O1117   1.262       .  A
N1113      O1116   1.263       .  A
C1118      C1119   1.389       .  A
C1118      C1123   1.390       .  A
C1118      H1125   1.085       .  S
C1119      C1120   1.406       .  A
C1120      C1121   1.394       .  A
C1120      N1127   1.426       .  S
C1121      C1122   1.402       .  A
C1121      H1126   1.078       .  S
C1122      C1123   1.433       .  A
C1123      N1124   1.434       .  S
N1124      O1128   1.263       .  A
N1124      O1129   1.262       .  A
N1127      O1131   1.262       .  A
N1127      O1130   1.262       .  A
C1132      C1133   1.394       .  A
C1132      C1137   1.376       .  A
C1132      H1139   1.077       .  S
C1133      C1134   1.411       .  A
C1134      C1135   1.387   1_554  A
C1134      N1141   1.431       .  S
C1135      C1136   1.398       .  A
C1135      H1140   1.084       .  S
C1136      C1137   1.406   1_556  A
C1137      N1138   1.427       .  S
N1138      O1142   1.262       .  A
N1138      O1534   1.262       .  A
N1141      O1145   1.262       .  A
N1141      O1144   1.262       .  A
O1143      N1529   1.261       .  A
C1146      C1147   1.402       .  A
C1146      C1151   1.394       .  A
C1146      H1153   1.084   1_455  S
C1147      C1148   1.411       .  A
C1148      C1149   1.381       .  A
C1148      N1155   1.430       .  S
C1149      C1150   1.403       .  A
C1149      H1154   1.085       .  S
C1150      C1151   1.408       .  A
C1151      N1152   1.427       .  S
N1152      O1156   1.262   1_455  A
N1152      O1157   1.263       .  A
N1155      O1159   1.262       .  A
N1155      O1158   1.262       .  A
C1160      C1161   1.399       .  A
C1160      C1165   1.393       .  A
C1160      H1167   1.084       .  S
C1161      C1162   1.407       .  A
C1162      C1163   1.385       .  A
C1162      N2733   1.429   1_455  S
C1163      C1164   1.408       .  A
C1163      H1168   1.085       .  S
C1164      C1165   1.421       .  A
C1165      N1166   1.426       .  S
N1166      O1170   1.262       .  A
N1166      O1171   1.262       .  A
N1169      C2726   1.429       .  S
N1169      O1173   1.262       .  A
N1169      O1172   1.262       .  A
C1174      C1175   1.546       .  S
C1174      C1180   1.563       .  S
C1174      C1178   1.539       .  S
C1174      C1555   1.520       .  S
C1175      H1182   1.072       .  S
C1175      C1176   1.361       .  D
C1176      C1177   1.606       .  S
C1176      C1221   1.591       .  S
C1177      C1181   1.582       .  S
C1177      C1179   1.643       .  S
C1177      H1183   1.109       .  S
C1178      H1184   1.086       .  S
C1178      C1179   1.341       .  D
C1179      C1186   1.614       .  S
C1180      H1185   1.086       .  S
C1180      C1181   1.361       .  D
C1181      N1378   1.491       .  S
C1186      C1188   1.495       .  S
C1186      C1190   1.530       .  S
C1186      C1189   1.638       .  S
C1187      C1214   1.598       .  S
C1187      C1191   1.511       .  S
C1187      C1193   1.535       .  S
C1187      C1192   1.618       .  S
C1188      C1196   1.366       .  A
C1188      C1191   1.382       .  A
C1189      C2764   1.436   1_455  A
C1189      C1192   1.440       .  A
C1190      C1204   1.385       .  A
C1190      C1193   1.399       .  A
C1191      C1194   1.367       .  A
C1192      C2762   1.426   1_455  A
C1193      C1201   1.384       .  A
C1194      N1195   1.341       .  A
C1194      H1207   1.063       .  S
N1195      C1340   1.418       .  S
N1195      C1196   1.334       .  A
C1196      H1197   1.078       .  S
C1198      C2756   1.426       .  A
C1198      N1199   1.384       .  A
C1198      H1208   1.081       .  S
N1199      C1200   1.391       .  A
N1199      N1281   1.474       .  S
C1200      C2753   1.436       .  A
C1200      H1206   1.081       .  S
C1201      N1202   1.358       .  A
C1201      H1203   1.081       .  S
N1202      C1258   1.443       .  S
N1202      C1204   1.353       .  A
C1204      H1205   1.083       .  S
C1209      C1210   1.533       .  S
C1209      C1215   1.558       .  S
C1209      C1213   1.552       .  S
C1209      C1541   1.509       .  S
C1210      H1217   1.085       .  S
C1210      C1211   1.349       .  D
C1211      C1212   1.618       .  S
C1211      C1315   1.591       .  S
C1212      C1216   1.575       .  S
C1212      C1214   1.614       .  S
C1212      H1218   1.107       .  S
C1213      H1219   1.079       .  S
C1213      C1214   1.360       .  D
C1215      H1220   1.087       .  S
C1215      C1216   1.349       .  D
C1216      N1401   1.477       .  S
C1221      C1223   1.483       .  S
C1221      C1225   1.557       .  S
C1221      C1224   1.655       .  S
C1222      C1305   1.570       .  S
C1222      C1226   1.517       .  S
C1222      C1228   1.552       .  S
C1222      C1227   1.546       .  S
C1223      C1231   1.354       .  A
C1223      C1226   1.365       .  A
C1224      C1235   1.436       .  A
C1224      C1227   1.431       .  A
C1225      C1239   1.399       .  A
C1225      C1228   1.395       .  A
C1226      C1229   1.347       .  A
C1228      C1236   1.381       .  A
C1229      N1230   1.341       .  A
C1229      H1242   1.077       .  S
N1230      C1261   1.400       .  S
N1230      C1231   1.343       .  A
C1231      H1232   1.060       .  S
C1233      N1234   1.369       .  A
C1233      H1243   1.082       .  S
N1234      N1328   1.457       .  S
C1236      N1237   1.359       .  A
C1236      H1238   1.079       .  S
N1237      C1249   1.474       .  S
N1237      C1239   1.361       .  A
C1239      H1240   1.069       .  S
C1244      C1245   1.528       .  S
C1244      C1250   1.539       .  S
C1244      C1248   1.552       .  S
C1244      C1524   1.492       .  S
C1245      H1252   1.085       .  S
C1245      C1246   1.345       .  D
C1246      C1247   1.637       .  S
C1246      C1269   1.589       .  S
C1247      C1251   1.604       .  S
C1247      C1249   1.568       .  S
C1247      H1253   1.110       .  S
C1248      H1254   1.080       .  S
C1248      C1249   1.356       .  D
C1250      H1255   1.085       .  S
C1250      C1251   1.342       .  D
C1251      C1362   1.570       .  S
C1256      C1257   1.559       .  S
C1256      C1262   1.565       .  S
C1256      C1260   1.514       .  S
C1256      C1513   1.514       .  S
C1257      H1264   1.085       .  S
C1257      C1258   1.373       .  D
C1258      C1259   1.524       .  S
C1259      C1263   1.553       .  S
C1259      C1261   1.504       .  S
C1259      H1265   1.109       .  S
C1260      H1266   1.088       .  S
C1260      C1261   1.324       .  D
C1262      H1267   1.079       .  S
C1262      C1263   1.371       .  D
C1263      C1386   1.526       .  S
C1268      C1352   1.586       .  S
C1268      C1270   1.524       .  S
C1268      C1272   1.491       .  S
C1268      C1271   1.628       .  S
C1269      C1273   1.522       .  S
C1269      C1275   1.490       .  S
C1269      C1274   1.625       .  S
C1270      C1278   1.376       .  A
C1270      C1273   1.398       .  A
C1271      C1282   1.429       .  A
C1271      C1274   1.437       .  A
C1272      C1286   1.351       .  A
C1272      C1275   1.379       .  A
C1273      C1276   1.375       .  A
C1274      C1280   1.431       .  A
C1275      C1283   1.364       .  A
C1276      N1277   1.348       .  A
C1276      H1289   1.080       .  S
N1277      C1296   1.431       .  S
N1277      C1278   1.351       .  A
C1278      H1279   1.081       .  S
C1280      N1281   1.388       .  A
C1280      H1290   1.081       .  S
N1281      C1282   1.388       .  A
C1282      H1288   1.082       .  S
C1283      N1284   1.326       .  A
C1283      H1285   1.079       .  S
N1284      C1308   1.393       .  S
N1284      C1286   1.326       .  A
C1286      H1287   1.060       .  S
C1291      C1292   1.531       .  S
C1291      C1297   1.561       .  S
C1291      C1295   1.548       .  S
C1291      C1496   1.512       .  S
C1292      H1299   1.074       .  S
C1292      C1293   1.347       .  D
C1293      C1294   1.553       .  S
C1293      C1316   1.514       .  S
C1294      C1298   1.522       .  S
C1294      C1296   1.535       .  S
C1294      H1300   1.111       .  S
C1295      H1301   1.078       .  S
C1295      C1296   1.365       .  D
C1297      H1302   1.086       .  S
C1297      C1298   1.357       .  D
C1298      N1371   1.443       .  S
C1303      C1304   1.580       .  S
C1303      C1309   1.577       .  S
C1303      C1307   1.527       .  S
C1303      C1482   1.534       .  S
C1304      H1311   1.083       .  S
C1304      C1305   1.391       .  D
C1305      C1306   1.574       .  S
C1306      C1310   1.531       .  S
C1306      C1308   1.493       .  S
C1306      H1312   1.110       .  S
C1307      H1313   1.089       .  S
C1307      C1308   1.325       .  D
C1309      H1314   1.086       .  S
C1309      C1310   1.365       .  D
C1310      N1394   1.470       .  S
C1315      C1317   1.528       .  S
C1315      C1319   1.560       .  S
C1315      C1318   1.667       .  S
C1316      C1320   1.534       .  S
C1316      C1322   1.507       .  S
C1316      C1321   1.539       .  S
C1317      C1325   1.385       .  A
C1317      C1320   1.388       .  A
C1318      C1329   1.454       .  A
C1318      C1321   1.422       .  A
C1319      C1333   1.400       .  A
C1319      C1322   1.361       .  A
C1320      C1323   1.378       .  A
C1321      C1327   1.389       .  A
C1322      C1330   1.366       .  A
C1323      N1324   1.352       .  A
C1323      H1336   1.078       .  S
N1324      C1343   1.447       .  S
N1324      C1325   1.356       .  A
C1325      H1326   1.078       .  S
C1327      N1328   1.350       .  A
C1327      H1337   1.075       .  S
N1328      C1329   1.400       .  A
C1329      H1335   1.081       .  S
C1330      N1331   1.350       .  A
C1330      H1332   1.072       .  S
N1331      C1355   1.461       .  S
N1331      C1333   1.360       .  A
C1333      H1334   1.057       .  S
C1338      C1339   1.537       .  S
C1338      C1344   1.551       .  S
C1338      C1342   1.574       .  S
C1338      C1468   1.520       .  S
C1339      H1346   1.077       .  S
C1339      C1340   1.346       .  D
C1340      C1341   1.515       .  S
C1341      C1345   1.563       .  S
C1341      C1343   1.521       .  S
C1341      H1347   1.111       .  S
C1342      H1348   1.086       .  S
C1342      C1343   1.362       .  D
C1344      H1349   1.085       .  S
C1344      C1345   1.363       .  D
C1345      C1363   1.528       .  S
C1350      C1351   1.544       .  S
C1350      C1356   1.544       .  S
C1350      C1354   1.538       .  S
C1350      C1454   1.496       .  S
C1351      H1358   1.084       .  S
C1351      C1352   1.342       .  D
C1352      C1353   1.621       .  S
C1353      C1357   1.629       .  S
C1353      C1355   1.549       .  S
C1353      H1359   1.109       .  S
C1354      H1360   1.089       .  S
C1354      C1355   1.339       .  D
C1356      H1361   1.081       .  S
C1356      C1357   1.355       .  D
C1357      C1385   1.591       .  S
C1362      C1364   1.524       .  S
C1362      C1366   1.562       .  S
C1362      C1365   1.636       .  S
C1363      C1367   1.518       .  S
C1363      C1369   1.538       .  S
C1363      C1368   1.570       .  S
C1364      C1372   1.377       .  A
C1364      C1367   1.366       .  A
C1365      C1368   1.427       .  A
C1366      C1380   1.402       .  A
C1366      C1369   1.371       .  A
C1367      C1370   1.377       .  A
C1369      C1377   1.390       .  A
C1370      N1371   1.351       .  A
C1370      H1383   1.076       .  S
N1371      C1372   1.357       .  A
C1372      H1373   1.067       .  S
C1374      N1375   1.372       .  A
C1374      H1384   1.082       .  S
N1375      C1376   1.390       .  A
N1375      N1398   1.457       .  S
C1376      H1382   1.081       .  S
C1377      N1378   1.360       .  A
C1377      H1379   1.075       .  S
N1378      C1380   1.377       .  A
C1380      H1381   1.076       .  S
C1385      C1387   1.543       .  S
C1385      C1389   1.559       .  S
C1385      C1388   1.648       .  S
C1386      C1390   1.535       .  S
C1386      C1392   1.523       .  S
C1386      C1391   1.556       .  S
C1387      C1395   1.394       .  A
C1387      C1390   1.377       .  A
C1388      C1399   1.444       .  A
C1388      C1391   1.428       .  A
C1389      C1403   1.402       .  A
C1389      C1392   1.365       .  A
C1390      C1393   1.389       .  A
C1391      C1397   1.393       .  A
C1392      C1400   1.383       .  A
C1393      N1394   1.358       .  A
C1393      H1406   1.076       .  S
N1394      C1395   1.363       .  A
C1395      H1396   1.078       .  S
C1397      N1398   1.360       .  A
C1397      H1407   1.081       .  S
N1398      C1399   1.397       .  A
C1399      H1405   1.082       .  S
C1400      N1401   1.349       .  A
C1400      H1402   1.067       .  S
N1401      C1403   1.376       .  A
C1403      H1404   1.078       .  S
N1408      N1409   1.316   1_556  A
N1408      N2196   1.315       .  A
N1408     Mn1437   2.189       .  S
N1409      C2589   1.352       .  A
N1410      N2194   1.308       .  A
N1410      N1411   1.325       .  A
N1410     Mn1426   2.167   1_455  S
N1412      N2192   1.308       .  A
N1412      N1413   1.304       .  A
N1412     Mn1437   2.134       .  S
N1413      C2981   1.346       .  A
N1414      N2190   1.313   1_565  A
N1414      N1415   1.310   1_556  A
N1414     Mn1426   2.151       .  S
C1416      N2582   1.352       .  A
C1416      C1552   1.466   1_655  S
C1417      N2977   1.346       .  A
C1417      C1510   1.439       .  S
N1418      N2988   1.313       .  A
N1418      N1419   1.317       .  A
N1418     Mn1448   2.174       .  S
N1419      C2991   1.353       .  A
N1420      N1421   1.310   1_556  A
N1420      N2986   1.313       .  A
N1420     Mn1426   2.167       .  S
N1422      N2984   1.313       .  A
N1422      N1423   1.320       .  A
N1422     Mn1448   2.176       .  S
N1423      C2601   1.352   1_556  A
N1424      N2982   1.313       .  A
N1424      N1425   1.312   1_655  A
N1424     Mn1426   2.168       .  S
N1425      C1427   1.342       .  A
Mn1426    Cl3014   2.490       .  S
C1427      N2983   1.353   1_455  A
C1427      C1538   1.457       .  S
C1428      N2596   1.353       .  A
C1428      C1471   1.470   1_655  S
N1429      N1430   1.328       .  A
N1429     Mn1437   2.209       .  S
N1430      C1438   1.365       .  A
N1431      N1432   1.317       .  A
N1431     Mn1449   2.161   1_545  S
N1433      N1434   1.306       .  A
N1433     Mn1437   2.121       .  S
N1435     Mn1449   2.142       .  S
N1436      C1438   1.341       .  A
C1438      C1485   1.459       .  S
C1439      C1527   1.432       .  S
N1440      N1441   1.312       .  A
N1440      N1446   1.318       .  A
N1440     Mn1448   2.215       .  S
N1442      N1443   1.315       .  A
N1442      N1444   1.302       .  A
N1442     Mn1449   2.127       .  S
N1443      C1452   1.347       .  A
N1444      N1445   1.311       .  A
N1444     Mn1448   2.160       .  S
N1445      C1452   1.354       .  A
N1446      N1447   1.318       .  A
N1446     Mn1449   2.156       .  S
Mn1448    Cl1450   2.513       .  S
Mn1449    Cl1450   2.514       .  S
Cl1450    Mn2990   2.491       .  S
C1451      C1499   1.450       .  S
C1452      C1457   1.433       .  S
C1453      C1454   1.415       .  A
C1453      C1458   1.376       .  A
C1453      H1460   1.079       .  S
C1454      C1455   1.417       .  A
C1455      C1456   1.387       .  A
C1455      N1462   1.427       .  S
C1456      C1457   1.400       .  A
C1456      H1461   1.085       .  S
C1457      C1458   1.389       .  A
C1458      N1459   1.426       .  S
N1459      O1463   1.260       .  A
N1459      O1464   1.263       .  A
N1462      O1466   1.262       .  A
N1462      O1465   1.262       .  A
C1467      C1468   1.389       .  A
C1467      C1472   1.386       .  A
C1467      H1474   1.085       .  S
C1468      C1469   1.422       .  A
C1469      C1470   1.397   1_455  A
C1469      N1476   1.430       .  S
C1470      C1471   1.394   1_655  A
C1470      H1475   1.084       .  S
C1471      C1472   1.429       .  A
C1472      N1473   1.431       .  S
N1473      O1477   1.262       .  A
N1473      O1478   1.260       .  A
N1476      O1480   1.262       .  A
N1476      O1479   1.263   1_455  A
C1481      C1482   1.419       .  A
C1481      C1486   1.385       .  A
C1481      H1488   1.084       .  S
C1482      C1483   1.419       .  A
C1483      C1484   1.412       .  A
C1483      N1490   1.426       .  S
C1484      C1485   1.412       .  A
C1484      H1489   1.084       .  S
C1485      C1486   1.394       .  A
C1486      N1487   1.428       .  S
N1487      O1491   1.262       .  A
N1487      O1492   1.262       .  A
N1490      O1493   1.262       .  A
C1495      C1496   1.410       .  A
C1495      C1500   1.381       .  A
C1495      H1502   1.085       .  S
C1496      C1497   1.417       .  A
C1497      C1498   1.394       .  A
C1497      N1504   1.427       .  S
C1498      C1499   1.400       .  A
C1498      H1503   1.085       .  S
C1499      C1500   1.395       .  A
N1501      O1505   1.262   1_554  A
N1501      O1506   1.262       .  A
N1504      O1508   1.262       .  A
N1504      O1507   1.263       .  A
C1509      C1510   1.390       .  A
C1509      C1514   1.391       .  A
C1509      H1516   1.085       .  S
C1510      C1511   1.404       .  A
C1511      C1512   1.392       .  A
C1511      N1518   1.426       .  S
C1512      C1513   1.402       .  A
C1512      H1517   1.077       .  S
C1513      C1514   1.433       .  A
C1514      N1515   1.434       .  S
N1515      O1519   1.263       .  A
N1515      O1520   1.262       .  A
N1518      O1522   1.262       .  A
N1518      O1521   1.262       .  A
C1523      C1524   1.393       .  A
C1523      C1528   1.375       .  A
C1523      H1530   1.077       .  S
C1524      C1525   1.412       .  A
C1525      C1526   1.388       .  A
C1525      N1532   1.432       .  S
C1526      C1527   1.399       .  A
C1526      H1531   1.084       .  S
C1527      C1528   1.406       .  A
C1528      N1529   1.427       .  S
N1529      O1533   1.262       .  A
N1532      O1536   1.262       .  A
N1532      O1535   1.262       .  A
C1537      C1538   1.402       .  A
C1537      C1542   1.393       .  A
C1537      H1544   1.084   1_455  S
C1538      C1539   1.412       .  A
C1539      C1540   1.381       .  A
C1539      N1546   1.430       .  S
C1540      C1541   1.402       .  A
C1540      H1545   1.085       .  S
C1541      C1542   1.408       .  A
C1542      N1543   1.427       .  S
N1543      O1547   1.262   1_455  A
N1543      O1548   1.263       .  A
N1546      O1550   1.262       .  A
N1546      O1549   1.262       .  A
C1551      C1552   1.399       .  A
C1551      C1556   1.393       .  A
C1551      H1558   1.084       .  S
C1552      C1553   1.406       .  A
C1553      C1554   1.385       .  A
C1553      N3124   1.429   1_455  S
C1554      C1555   1.408       .  A
C1554      H1559   1.085       .  S
C1555      C1556   1.421       .  A
C1556      N1557   1.427       .  S
N1557      O1561   1.262       .  A
N1557      O1562   1.262       .  A
N1560      C3117   1.429       .  S
N1560      O1564   1.262       .  A
N1560      O1563   1.262       .  A
C1565      C1566   1.540       .  S
C1565      C1571   1.543       .  S
C1565      C1569   1.552       .  S
C1565      C1946   1.508       .  S
C1566      H1573   1.079       .  S
C1566      C1567   1.356       .  D
C1567      C1568   1.607       .  S
C1567      C1612   1.582       .  S
C1568      C1572   1.587       .  S
C1568      C1570   1.639       .  S
C1568      H1574   1.108       .  S
C1569      H1575   1.082       .  S
C1569      C1570   1.341       .  D
C1570      C1577   1.613       .  S
C1571      H1576   1.086       .  S
C1571      C1572   1.352       .  D
C1572      N1769   1.485       .  S
C1577      C1579   1.494       .  S
C1577      C1581   1.534       .  S
C1577      C1580   1.639       .  S
C1578      C1605   1.584       .  S
C1578      C1582   1.509       .  S
C1578      C1584   1.529       .  S
C1578      C1583   1.614       .  S
C1579      C1587   1.365       .  A
C1579      C1582   1.379       .  A
C1580      C1583   1.439       .  A
C1581      C1595   1.386       .  A
C1581      C1584   1.397       .  A
C1582      C1585   1.366       .  A
C1584      C1592   1.380       .  A
C1585      N1586   1.341       .  A
C1585      H1598   1.062       .  S
N1586      C1731   1.416       .  S
N1586      C1587   1.333       .  A
C1587      H1588   1.078       .  S
C1589      N1590   1.383       .  A
C1589      H1599   1.081       .  S
N1590      C1591   1.392       .  A
N1590      N1672   1.474       .  S
C1591      H1597   1.082       .  S
C1592      N1593   1.355       .  A
C1592      H1594   1.080       .  S
N1593      C1649   1.441       .  S
N1593      C1595   1.354       .  A
C1595      H1596   1.085       .  S
C1600      C1601   1.537       .  S
C1600      C1606   1.555       .  S
C1600      C1604   1.550       .  S
C1600      C1932   1.509       .  S
C1601      H1608   1.084       .  S
C1601      C1602   1.353       .  D
C1602      C1603   1.611       .  S
C1602      C1706   1.588       .  S
C1603      C1607   1.578       .  S
C1603      C1605   1.603       .  S
C1603      H1609   1.105       .  S
C1604      H1610   1.078       .  S
C1604      C1605   1.354       .  D
C1606      H1611   1.087       .  S
C1606      C1607   1.350       .  D
C1607      N1792   1.477       .  S
C1612      C1614   1.484       .  S
C1612      C1616   1.552       .  S
C1612      C1615   1.659       .  S
C1613      C1696   1.565       .  S
C1613      C1617   1.517       .  S
C1613      C1619   1.554       .  S
C1613      C1618   1.558       .  S
C1614      C1622   1.355       .  A
C1614      C1617   1.364       .  A
C1615      C1626   1.442   1_545  A
C1615      C1618   1.431       .  A
C1616      C1630   1.401       .  A
C1616      C1619   1.388       .  A
C1617      C1620   1.349       .  A
C1618      C2406   1.398   1_545  A
C1619      C1627   1.383       .  A
C1620      N1621   1.341       .  A
C1620      H1633   1.079       .  S
N1621      C1652   1.402       .  S
N1621      C1622   1.345       .  A
C1622      H1623   1.042       .  S
C1624      C2400   1.390       .  A
C1624      N1625   1.366       .  A
C1624      H1634   1.082       .  S
N1625      C2408   1.391       .  A
N1625      N1719   1.450       .  S
C1626      N2407   1.393       .  A
C1626      H2414   1.080       .  S
C1627      N1628   1.362       .  A
C1627      H1629   1.079       .  S
N1628      C1640   1.479       .  S
N1628      C1630   1.360       .  A
C1630      H1631   1.067       .  S
H1632      C2408   1.079       .  S
C1635      C1636   1.529       .  S
C1635      C1641   1.541       .  S
C1635      C1639   1.549       .  S
C1635      C1915   1.493       .  S
C1636      H1643   1.085       .  S
C1636      C1637   1.345       .  D
C1637      C1638   1.636       .  S
C1637      C1660   1.587       .  S
C1638      C1642   1.609       .  S
C1638      C1640   1.575       .  S
C1638      H1644   1.110       .  S
C1639      H1645   1.079       .  S
C1639      C1640   1.351       .  D
C1641      H1646   1.085       .  S
C1641      C1642   1.344       .  D
C1642      C1753   1.577       .  S
C1647      C1648   1.556       .  S
C1647      C1653   1.569       .  S
C1647      C1651   1.515       .  S
C1647      C1904   1.516       .  S
C1648      H1655   1.085       .  S
C1648      C1649   1.369       .  D
C1649      C1650   1.524       .  S
C1650      C1654   1.553       .  S
C1650      C1652   1.504       .  S
C1650      H1656   1.109       .  S
C1651      H1657   1.088       .  S
C1651      C1652   1.325       .  D
C1653      H1658   1.080       .  S
C1653      C1654   1.379       .  D
C1654      C1777   1.533       .  S
C1659      C1743   1.590       .  S
C1659      C1661   1.535       .  S
C1659      C1663   1.496       .  S
C1659      C1662   1.626       .  S
C1660      C1664   1.521       .  S
C1660      C1666   1.491       .  S
C1660      C1665   1.629       .  S
C1661      C1669   1.384       .  A
C1661      C1664   1.394       .  A
C1662      C1673   1.428       .  A
C1662      C1665   1.438       .  A
C1663      C1677   1.358       .  A
C1663      C1666   1.378       .  A
C1664      C1667   1.377       .  A
C1665      C1671   1.433       .  A
C1666      C1674   1.368       .  A
C1667      N1668   1.349       .  A
C1667      H1680   1.078       .  S
N1668      C1687   1.443       .  S
N1668      C1669   1.357       .  A
C1669      H1670   1.082       .  S
C1671      N1672   1.388       .  A
C1671      H1681   1.082       .  S
N1672      C1673   1.387       .  A
C1673      H1679   1.082       .  S
C1674      N1675   1.327       .  A
C1674      H1676   1.079       .  S
N1675      C1699   1.401       .  S
N1675      C1677   1.330       .  A
C1677      H1678   1.062       .  S
C1682      C1683   1.535       .  S
C1682      C1688   1.556       .  S
C1682      C1686   1.557       .  S
C1682      C1887   1.521       .  S
C1683      H1690   1.073       .  S
C1683      C1684   1.352       .  D
C1684      C1685   1.552       .  S
C1684      C1707   1.523       .  S
C1685      C1689   1.518       .  S
C1685      C1687   1.537       .  S
C1685      H1691   1.111       .  S
C1686      H1692   1.079       .  S
C1686      C1687   1.372       .  D
C1688      H1693   1.086       .  S
C1688      C1689   1.352       .  D
C1689      N1762   1.435       .  S
C1694      C1695   1.573       .  S
C1694      C1700   1.575       .  S
C1694      C1698   1.531       .  S
C1694      C1873   1.528       .  S
C1695      H1702   1.082       .  S
C1695      C1696   1.383       .  D
C1696      C1697   1.579       .  S
C1697      C1701   1.534       .  S
C1697      C1699   1.499       .  S
C1697      H1703   1.111       .  S
C1698      H1704   1.088       .  S
C1698      C1699   1.328       .  D
C1700      H1705   1.086       .  S
C1700      C1701   1.364       .  D
C1701      N1785   1.468       .  S
C1706      C1708   1.536       .  S
C1706      C1710   1.558       .  S
C1706      C1709   1.653       .  S
C1707      C1711   1.534       .  S
C1707      C1713   1.506       .  S
C1707      C1712   1.540       .  S
C1708      C1716   1.386       .  A
C1708      C1711   1.393       .  A
C1709      C1720   1.446       .  A
C1709      C1712   1.422       .  A
C1710      C1724   1.399       .  A
C1710      C1713   1.359       .  A
C1711      C1714   1.377       .  A
C1712      C1718   1.387       .  A
C1713      C1721   1.362       .  A
C1714      N1715   1.353       .  A
C1714      H1727   1.078       .  S
N1715      C1734   1.446       .  S
N1715      C1716   1.358       .  A
C1716      H1717   1.080       .  S
C1718      N1719   1.349       .  A
C1718      H1728   1.075       .  S
N1719      C1720   1.395       .  A
C1720      H1726   1.081       .  S
C1721      N1722   1.352       .  A
C1721      H1723   1.069       .  S
N1722      C1746   1.457       .  S
N1722      C1724   1.357       .  A
C1724      H1725   1.054       .  S
C1729      C1730   1.532       .  S
C1729      C1735   1.561       .  S
C1729      C1733   1.573       .  S
C1729      C1859   1.527       .  S
C1730      H1737   1.073       .  S
C1730      C1731   1.345       .  D
C1731      C1732   1.515       .  S
C1732      C1736   1.560       .  S
C1732      C1734   1.518       .  S
C1732      H1738   1.111       .  S
C1733      H1739   1.086       .  S
C1733      C1734   1.363       .  D
C1735      H1740   1.085   1_554  S
C1735      C1736   1.370       .  D
C1736      C1754   1.540       .  S
C1741      C1742   1.550       .  S
C1741      C1747   1.545       .  S
C1741      C1745   1.528       .  S
C1741      C1845   1.495       .  S
C1742      H1749   1.083       .  S
C1742      C1743   1.345       .  D
C1743      C1744   1.620       .  S
C1744      C1748   1.632       .  S
C1744      C1746   1.551       .  S
C1744      H1750   1.109       .  S
C1745      H1751   1.090       .  S
C1745      C1746   1.333       .  D
C1747      H1752   1.083       .  S
C1747      C1748   1.359       .  D
C1748      C1776   1.598       .  S
C1753      C1755   1.520       .  S
C1753      C1757   1.555       .  S
C1753      C1756   1.635       .  S
C1754      C1758   1.520       .  S
C1754      C1760   1.533       .  S
C1754      C1759   1.572       .  S
C1755      C1763   1.372       .  A
C1755      C1758   1.376       .  A
C1756      C2158   1.434   1_554  A
C1756      C1759   1.429       .  A
C1757      C1771   1.396       .  A
C1757      C1760   1.370       .  A
C1758      C1761   1.376       .  A
C1759      C2156   1.402   1_554  A
C1760      C1768   1.385       .  A
C1761      N1762   1.348       .  A
C1761      H1774   1.077       .  S
N1762      C1763   1.353       .  A
C1763      H1764   1.069       .  S
C1765      C2150   1.400       .  A
C1765      N1766   1.370       .  A
C1765      H1775   1.082       .  S
N1766      C1767   1.390       .  A
N1766      N1789   1.455       .  S
C1767      C2147   1.434       .  A
C1767      H1773   1.081       .  S
C1768      N1769   1.359       .  A
C1768      H1770   1.074       .  S
N1769      C1771   1.375       .  A
C1771      H1772   1.075       .  S
C1776      C1778   1.545       .  S
C1776      C1780   1.558       .  S
C1776      C1779   1.651       .  S
C1777      C1781   1.532       .  S
C1777      C1783   1.526       .  S
C1777      C1782   1.552       .  S
C1778      C1786   1.394       .  A
C1778      C1781   1.379       .  A
C1779      C1790   1.445       .  A
C1779      C1782   1.430       .  A
C1780      C1794   1.402       .  A
C1780      C1783   1.368       .  A
C1781      C1784   1.386       .  A
C1782      C1788   1.390       .  A
C1783      C1791   1.383       .  A
C1784      N1785   1.355       .  A
C1784      H1797   1.077       .  S
N1785      C1786   1.363       .  A
C1786      H1787   1.076       .  S
C1788      N1789   1.358       .  A
C1788      H1798   1.081       .  S
N1789      C1790   1.398       .  A
C1790      H1796   1.082       .  S
C1791      N1792   1.351       .  A
C1791      H1793   1.068       .  S
N1792      C1794   1.375       .  A
C1794      H1795   1.079       .  S
N1799      N1800   1.317       .  A
N1799     Mn1828   2.195       .  S
N1801      N1802   1.321       .  A
N1801     Mn1817   2.144       .  S
N1802      C2590   1.345       .  A
N1803      N1804   1.302   1_565  A
N1803     Mn1828   2.127   1_465  S
N1805      N1806   1.313       .  A
N1805     Mn1817   2.178       .  S
N1806      C2980   1.354       .  A
C1807      N2979   1.349   1_545  A
C1807      C1943   1.450       .  S
C1808      N2584   1.350       .  A
C1808      C1901   1.445   1_565  S
N1809      N1810   1.315       .  A
N1809     Mn1839   2.170       .  S
N1811      N1812   1.312       .  A
N1811     Mn1817   2.166       .  S
N1812      C2210   1.338       .  A
N1813      N1814   1.323       .  A
N1813     Mn1839   2.189       .  S
N1815      N1816   1.315       .  A
N1815     Mn1817   2.185       .  S
N1816      C1818   1.344       .  A
C1818      C1929   1.463       .  S
C1819      N2203   1.339       .  A
C1819      C1862   1.472       .  S
N1820      N1821   1.326       .  A
N1820      N2608   1.311   1_545  A
N1820     Mn1828   2.200       .  S
N1821      C1829   1.363       .  A
N1822      N2606   1.305       .  A
N1822      N1823   1.316       .  A
N1822     Mn1840   2.157       .  S
N1823      C3003   1.355       .  A
N1824      N2604   1.306       .  A
N1824      N1825   1.305       .  A
N1824     Mn1828   2.116       .  S
N1825      C2221   1.339       .  A
N1826      N2602   1.312       .  A
N1826      N2609   1.303       .  A
N1826     Mn1840   2.153       .  S
N1827      C1829   1.341   1_565  A
N1827      N2608   1.302       .  A
Mn1828    Cl2623   2.521   1_545  S
C1829      C1876   1.456       .  S
C1830      N2996   1.354       .  A
C1830      N2216   1.339       .  A
C1830      C1918   1.432       .  S
N1831      N1832   1.311       .  A
N1831      N1837   1.318       .  A
N1831     Mn1839   2.212       .  S
N1832      C2233   1.352       .  A
N1833      N1834   1.314       .  A
N1833      N1835   1.303       .  A
N1833     Mn1840   2.117       .  S
N1834      C1843   1.344       .  A
N1835      N1836   1.311       .  A
N1835     Mn1839   2.165       .  S
N1836      C1843   1.354       .  A
N1837      N1838   1.320       .  A
N1837     Mn1840   2.174       .  S
N1838      C2233   1.350       .  A
Mn1839    Cl1841   2.524       .  S
Mn1840    Cl1841   2.508       .  S
Cl1841    Mn2610   2.529       .  S
C1842      N2223   1.352       .  A
C1842      N2229   1.349       .  A
C1842      C1890   1.453   1_556  S
C1843      C1848   1.430       .  S
C1844      C1845   1.411       .  A
C1844      C1849   1.372       .  A
C1844      H1851   1.077       .  S
C1845      C1846   1.421       .  A
C1846      C1847   1.390       .  A
C1846      N1853   1.432       .  S
C1847      C1848   1.400       .  A
C1847      H1852   1.085       .  S
C1848      C1849   1.389       .  A
C1849      N1850   1.425       .  S
N1850      O1854   1.260       .  A
N1850      O1855   1.262       .  A
N1853      O1857   1.263       .  A
N1853      O1856   1.262       .  A
C1858      C1859   1.390   1_556  A
C1858      C1863   1.388       .  A
C1858      H1865   1.085       .  S
C1859      C1860   1.430       .  A
C1860      C1861   1.399       .  A
C1860      N1867   1.429       .  S
C1861      C1862   1.391       .  A
C1861      H1866   1.084       .  S
C1862      C1863   1.423   1_554  A
C1863      N1864   1.427       .  S
N1864      O1868   1.262       .  A
N1864      O1869   1.260       .  A
N1867      O1871   1.262       .  A
N1867      O1870   1.263       .  A
C1872      C1873   1.416       .  A
C1872      C1877   1.383       .  A
C1872      H1879   1.085       .  S
C1873      C1874   1.418       .  A
C1874      C1875   1.408       .  A
C1874      N1881   1.427   1_545  S
C1875      C1876   1.411       .  A
C1875      H1880   1.085   1_545  S
C1876      C1877   1.397       .  A
C1877      N1878   1.428       .  S
N1878      O1882   1.261       .  A
N1878      O1883   1.263       .  A
N1881      O2667   1.262       .  A
N1881      O1884   1.262       .  A
O1885      N2663   1.262       .  A
C1886      C1887   1.413       .  A
C1886      C1891   1.385       .  A
C1886      H1893   1.085       .  S
C1887      C1888   1.416       .  A
C1888      C1889   1.396       .  A
C1888      N1895   1.426       .  S
C1889      C1890   1.401       .  A
C1889      H1894   1.085       .  S
C1890      C1891   1.396       .  A
C1891      N2283   1.428       .  S
N1892      C2282   1.427       .  S
N1892      O1896   1.262       .  A
N1892      O1897   1.262       .  A
N1895      O1899   1.262       .  A
N1895      O1898   1.262       .  A
C1900      C1901   1.390       .  A
C1900      C1905   1.391       .  A
C1900      H1907   1.086   1_545  S
C1901      C1902   1.408       .  A
C1902      C1903   1.398       .  A
C1902      N1909   1.425       .  S
C1903      C1904   1.401       .  A
C1903      H1908   1.079       .  S
C1904      C1905   1.433       .  A
C1905      N1906   1.434       .  S
N1906      O1910   1.262       .  A
N1906      O1911   1.262       .  A
N1909      O1913   1.262       .  A
N1909      O1912   1.262       .  A
C1914      C1915   1.395       .  A
C1914      C1919   1.374       .  A
C1914      H1921   1.077       .  S
C1915      C1916   1.409       .  A
C1916      C1917   1.388   1_554  A
C1916      N1923   1.431       .  S
C1917      C1918   1.401       .  A
C1917      H1922   1.084       .  S
C1918      C1919   1.405   1_556  A
C1919      N1920   1.427       .  S
N1920      O1924   1.262       .  A
N1920      O2316   1.262       .  A
N1923      O1927   1.262       .  A
N1923      O1926   1.262       .  A
O1925      N2311   1.262       .  A
C1928      C1929   1.401       .  A
C1928      C1933   1.391       .  A
C1928      H1935   1.083       .  S
C1929      C1930   1.413       .  A
C1930      C1931   1.385       .  A
C1930      N1937   1.429       .  S
C1931      C1932   1.402       .  A
C1931      H1936   1.085       .  S
C1932      C1933   1.409       .  A
C1933      N1934   1.428       .  S
N1934      O1938   1.262       .  A
N1934      O1939   1.262       .  A
N1937      O1941   1.261       .  A
N1937      O1940   1.262       .  A
C1942      C1943   1.399       .  A
C1942      C1947   1.386       .  A
C1942      H1949   1.084   1_545  S
C1943      C1944   1.398       .  A
C1944      C1945   1.383       .  A
C1945      C1946   1.410       .  A
C1945      H1950   1.078       .  S
C1946      C1947   1.419       .  A
C1947      N1948   1.432       .  S
N1948      O1952   1.262   1_545  A
N1948      O1953   1.263       .  A
N1951      O1955   1.262       .  A
N1951      O1954   1.262       .  A
C1956      C1957   1.539       .  S
C1956      C1962   1.545       .  S
C1956      C1960   1.551       .  S
C1956      C2337   1.508       .  S
C1957      H1964   1.078       .  S
C1957      C1958   1.355       .  D
C1958      C1959   1.608       .  S
C1958      C2003   1.582       .  S
C1959      C1963   1.585       .  S
C1959      C1961   1.637       .  S
C1959      H1965   1.108       .  S
C1960      H1966   1.083       .  S
C1960      C1961   1.341       .  D
C1961      C1968   1.610       .  S
C1962      H1967   1.086       .  S
C1962      C1963   1.354       .  D
C1963      N2160   1.485       .  S
C1968      C1970   1.498       .  S
C1968      C1972   1.530       .  S
C1968      C1971   1.640       .  S
C1969      C1996   1.582       .  S
C1969      C1973   1.510       .  S
C1969      C1975   1.526       .  S
C1969      C1974   1.613       .  S
C1970      C1978   1.369       .  A
C1970      C1973   1.382       .  A
C1971      C1974   1.439       .  A
C1972      C1986   1.386       .  A
C1972      C1975   1.395       .  A
C1973      C1976   1.368       .  A
C1975      C1983   1.380       .  A
C1976      N1977   1.342       .  A
C1976      H1989   1.065       .  S
N1977      C2122   1.421       .  S
N1977      C1978   1.334       .  A
C1978      H1979   1.078       .  S
C1980      N1981   1.382       .  A
C1980      H1990   1.081       .  S
N1981      C1982   1.392       .  A
N1981      N2063   1.473       .  S
C1982      H1988   1.082       .  S
C1983      N1984   1.354       .  A
C1983      H1985   1.080       .  S
N1984      C2040   1.441       .  S
N1984      C1986   1.352       .  A
C1986      H1987   1.088       .  S
C1991      C1992   1.535       .  S
C1991      C1997   1.555       .  S
C1991      C1995   1.548       .  S
C1991      C2323   1.507       .  S
C1992      H1999   1.084       .  S
C1992      C1993   1.352       .  D
C1993      C1994   1.609       .  S
C1993      C2097   1.582       .  S
C1994      C1998   1.580       .  S
C1994      C1996   1.604       .  S
C1994      H2000   1.106       .  S
C1995      H2001   1.077       .  S
C1995      C1996   1.353       .  D
C1997      H2002   1.087       .  S
C1997      C1998   1.349       .  D
C1998      N2183   1.478       .  S
C2003      C2005   1.483       .  S
C2003      C2007   1.551       .  S
C2003      C2006   1.661       .  S
C2004      C2087   1.564       .  S
C2004      C2008   1.517       .  S
C2004      C2010   1.552       .  S
C2004      C2009   1.555       .  S
C2005      C2013   1.355       .  A
C2005      C2008   1.364       .  A
C2006      C2017   1.442   1_545  A
C2006      C2009   1.431       .  A
C2007      C2021   1.400       .  A
C2007      C2010   1.388       .  A
C2008      C2011   1.349       .  A
C2009      C2797   1.396   1_545  A
C2010      C2018   1.381       .  A
C2011      N2012   1.339       .  A
C2011      H2024   1.081       .  S
N2012      C2043   1.400       .  S
N2012      C2013   1.349       .  A
C2013      H2014   1.001       .  S
C2015      C2791   1.389       .  A
C2015      N2016   1.365       .  A
C2015      H2025   1.082       .  S
N2016      C2799   1.390       .  A
N2016      N2110   1.449       .  S
C2017      N2798   1.393       .  A
C2017      H2805   1.080       .  S
C2018      N2019   1.362       .  A
C2018      H2020   1.079       .  S
N2019      C2031   1.477       .  S
N2019      C2021   1.360       .  A
C2021      H2022   1.067       .  S
H2023      C2799   1.078       .  S
C2026      C2027   1.528       .  S
C2026      C2032   1.541       .  S
C2026      C2030   1.548       .  S
C2026      C2306   1.492       .  S
C2027      H2034   1.085       .  S
C2027      C2028   1.345       .  D
C2028      C2029   1.635       .  S
C2028      C2051   1.585       .  S
C2029      C2033   1.607       .  S
C2029      C2031   1.574       .  S
C2029      H2035   1.110       .  S
C2030      H2036   1.078       .  S
C2030      C2031   1.350       .  D
C2032      H2037   1.085       .  S
C2032      C2033   1.345       .  D
C2033      C2144   1.575       .  S
C2038      C2039   1.556       .  S
C2038      C2044   1.568       .  S
C2038      C2042   1.517       .  S
C2038      C2295   1.515       .  S
C2039      H2046   1.085       .  S
C2039      C2040   1.368       .  D
C2040      C2041   1.524       .  S
C2041      C2045   1.554       .  S
C2041      C2043   1.501       .  S
C2041      H2047   1.109       .  S
C2042      H2048   1.088       .  S
C2042      C2043   1.324       .  D
C2044      H2049   1.080       .  S
C2044      C2045   1.379       .  D
C2045      C2168   1.532       .  S
C2050      C2134   1.589       .  S
C2050      C2052   1.536       .  S
C2050      C2054   1.496       .  S
C2050      C2053   1.627       .  S
C2051      C2055   1.523       .  S
C2051      C2057   1.490       .  S
C2051      C2056   1.624       .  S
C2052      C2060   1.385       .  A
C2052      C2055   1.395       .  A
C2053      C2064   1.429       .  A
C2053      C2056   1.437       .  A
C2054      C2068   1.356       .  A
C2054      C2057   1.376       .  A
C2055      C2058   1.378       .  A
C2056      C2062   1.430       .  A
C2057      C2065   1.368       .  A
C2058      N2059   1.350       .  A
C2058      H2071   1.079       .  S
N2059      C2078   1.442       .  S
N2059      C2060   1.357       .  A
C2060      H2061   1.081       .  S
C2062      N2063   1.387       .  A
C2062      H2072   1.081       .  S
N2063      C2064   1.388       .  A
C2064      H2070   1.082       .  S
C2065      N2066   1.328       .  A
C2065      H2067   1.078       .  S
N2066      C2090   1.401       .  S
N2066      C2068   1.328       .  A
C2068      H2069   1.078       .  S
C2073      C2074   1.533       .  S
C2073      C2079   1.557       .  S
C2073      C2077   1.557       .  S
C2073      C2278   1.520       .  S
C2074      H2081   1.074       .  S
C2074      C2075   1.349       .  D
C2075      C2076   1.551       .  S
C2075      C2098   1.518       .  S
C2076      C2080   1.519       .  S
C2076      C2078   1.536       .  S
C2076      H2082   1.111       .  S
C2077      H2083   1.079       .  S
C2077      C2078   1.374       .  D
C2079      H2084   1.086       .  S
C2079      C2080   1.353       .  D
C2080      N2153   1.436       .  S
C2085      C2086   1.572       .  S
C2085      C2091   1.575       .  S
C2085      C2089   1.531       .  S
C2085      C2264   1.528       .  S
C2086      H2093   1.082       .  S
C2086      C2087   1.382       .  D
C2087      C2088   1.579       .  S
C2088      C2092   1.533       .  S
C2088      C2090   1.499       .  S
C2088      H2094   1.110       .  S
C2089      H2095   1.089       .  S
C2089      C2090   1.328       .  D
C2091      H2096   1.086       .  S
C2091      C2092   1.365       .  D
C2092      N2176   1.468       .  S
C2097      C2099   1.531       .  S
C2097      C2101   1.556       .  S
C2097      C2100   1.652       .  S
C2098      C2102   1.534       .  S
C2098      C2104   1.507       .  S
C2098      C2103   1.540       .  S
C2099      C2107   1.384       .  A
C2099      C2102   1.391       .  A
C2100      C2111   1.445       .  A
C2100      C2103   1.421       .  A
C2101      C2115   1.398       .  A
C2101      C2104   1.360       .  A
C2102      C2105   1.377       .  A
C2103      C2109   1.387       .  A
C2104      C2112   1.363       .  A
C2105      N2106   1.352       .  A
C2105      H2118   1.078       .  S
N2106      C2125   1.446       .  S
N2106      C2107   1.357       .  A
C2107      H2108   1.078       .  S
C2109      N2110   1.350       .  A
C2109      H2119   1.075       .  S
N2110      C2111   1.394       .  A
C2111      H2117   1.081       .  S
C2112      N2113   1.352       .  A
C2112      H2114   1.070       .  S
N2113      C2137   1.457       .  S
N2113      C2115   1.357       .  A
C2115      H2116   1.056       .  S
C2120      C2121   1.539       .  S
C2120      C2126   1.556       .  S
C2120      C2124   1.574       .  S
C2120      C2250   1.529       .  S
C2121      H2128   1.077       .  S
C2121      C2122   1.348       .  D
C2122      C2123   1.517       .  S
C2123      C2127   1.559       .  S
C2123      C2125   1.520       .  S
C2123      H2129   1.111       .  S
C2124      H2130   1.086       .  S
C2124      C2125   1.361       .  D
C2126      H2131   1.085       .  S
C2126      C2127   1.368       .  D
C2127      C2145   1.535       .  S
C2132      C2133   1.549       .  S
C2132      C2138   1.545       .  S
C2132      C2136   1.531       .  S
C2132      C2236   1.494       .  S
C2133      H2140   1.083       .  S
C2133      C2134   1.343       .  D
C2134      C2135   1.620       .  S
C2135      C2139   1.633       .  S
C2135      C2137   1.550       .  S
C2135      H2141   1.109       .  S
C2136      H2142   1.089       .  S
C2136      C2137   1.334       .  D
C2138      H2143   1.083       .  S
C2138      C2139   1.359       .  D
C2139      C2167   1.599       .  S
C2144      C2146   1.521       .  S
C2144      C2148   1.556       .  S
C2144      C2147   1.635       .  S
C2145      C2149   1.519       .  S
C2145      C2151   1.534       .  S
C2145      C2150   1.569       .  S
C2146      C2154   1.373       .  A
C2146      C2149   1.375       .  A
C2147      C2150   1.427       .  A
C2148      C2162   1.397       .  A
C2148      C2151   1.370       .  A
C2149      C2152   1.376       .  A
C2151      C2159   1.386       .  A
C2152      N2153   1.348       .  A
C2152      H2165   1.077       .  S
N2153      C2154   1.353       .  A
C2154      H2155   1.068       .  S
C2156      N2157   1.372       .  A
C2156      H2166   1.082       .  S
N2157      C2158   1.390       .  A
N2157      N2180   1.456       .  S
C2158      H2164   1.081       .  S
C2159      N2160   1.359       .  A
C2159      H2161   1.074       .  S
N2160      C2162   1.375       .  A
C2162      H2163   1.075       .  S
C2167      C2169   1.546       .  S
C2167      C2171   1.559       .  S
C2167      C2170   1.653       .  S
C2168      C2172   1.533       .  S
C2168      C2174   1.525       .  S
C2168      C2173   1.552       .  S
C2169      C2177   1.395       .  A
C2169      C2172   1.379       .  A
C2170      C2181   1.446       .  A
C2170      C2173   1.430       .  A
C2171      C2185   1.402       .  A
C2171      C2174   1.366       .  A
C2172      C2175   1.386       .  A
C2173      C2179   1.390       .  A
C2174      C2182   1.382       .  A
C2175      N2176   1.355       .  A
C2175      H2188   1.077       .  S
N2176      C2177   1.364       .  A
C2177      H2178   1.081       .  S
C2179      N2180   1.358       .  A
C2179      H2189   1.081       .  S
N2180      C2181   1.398       .  A
C2181      H2187   1.082       .  S
C2182      N2183   1.350       .  A
C2182      H2184   1.068       .  S
N2183      C2185   1.376       .  A
C2185      H2186   1.078       .  S
N2190      N2191   1.316   1_556  A
N2190     Mn2219   2.195       .  S
N2192      N2193   1.321       .  A
N2192     Mn2208   2.143       .  S
N2193      C2981   1.345       .  A
N2194      N2195   1.301   1_565  A
N2194     Mn2219   2.120   1_465  S
N2196      N2197   1.313   1_556  A
N2196     Mn2208   2.180       .  S
N2197      C2589   1.355       .  A
C2198      N2588   1.349   1_545  A
C2198      C2334   1.451       .  S
C2199      N2975   1.351       .  A
C2199      C2292   1.444   1_565  S
N2200      N2201   1.316       .  A
N2200     Mn2230   2.174       .  S
N2202      N2203   1.312   1_556  A
N2202     Mn2208   2.166       .  S
N2204      N2205   1.322       .  A
N2204     Mn2230   2.181       .  S
N2206      N2207   1.315       .  A
N2206     Mn2208   2.175       .  S
N2207      C2209   1.343       .  A
C2209      C2320   1.460       .  S
C2210      C2253   1.477       .  S
N2211      N2212   1.326       .  A
N2211      N2999   1.311   1_545  A
N2211     Mn2219   2.198       .  S
N2212      C2220   1.363       .  A
N2213      N2997   1.305       .  A
N2213      N2214   1.316       .  A
N2213     Mn2231   2.151       .  S
N2214      C2612   1.354       .  A
N2215      N2995   1.305       .  A
N2215      N2216   1.305       .  A
N2215     Mn2219   2.113       .  S
N2217      N2993   1.312       .  A
N2217      N3000   1.303       .  A
N2217     Mn2231   2.153       .  S
N2218      C2220   1.341   1_565  A
N2218      N2999   1.303       .  A
Mn2219    Cl3014   2.517   1_545  S
C2220      C2267   1.456       .  S
C2221      N2605   1.354       .  A
C2221      C2309   1.432       .  S
N2222      N2223   1.311       .  A
N2222      N2228   1.318       .  A
N2222     Mn2230   2.213       .  S
N2224      N2225   1.313       .  A
N2224      N2226   1.302       .  A
N2224     Mn2231   2.113       .  S
N2225      C2234   1.343       .  A
N2226      N2227   1.310       .  A
N2226     Mn2230   2.161       .  S
N2227      C2234   1.354       .  A
N2228      N2229   1.320       .  A
N2228     Mn2231   2.171       .  S
Mn2230    Cl2232   2.522       .  S
Mn2231    Cl2232   2.509       .  S
Cl2232    Mn3001   2.529       .  S
C2233      C2281   1.453       .  S
C2234      C2239   1.428       .  S
C2235      C2236   1.412       .  A
C2235      C2240   1.372       .  A
C2235      H2242   1.076       .  S
C2236      C2237   1.421       .  A
C2237      C2238   1.389       .  A
C2237      N2244   1.431       .  S
C2238      C2239   1.400       .  A
C2238      H2243   1.085       .  S
C2239      C2240   1.388       .  A
C2240      N2241   1.425       .  S
N2241      O2245   1.259       .  A
N2241      O2246   1.262       .  A
N2244      O2248   1.263       .  A
N2244      O2247   1.262       .  A
C2249      C2250   1.392       .  A
C2249      C2254   1.390       .  A
C2249      H2256   1.085       .  S
C2250      C2251   1.425       .  A
C2251      C2252   1.400       .  A
C2251      N2258   1.430       .  S
C2252      C2253   1.394       .  A
C2252      H2257   1.084       .  S
C2253      C2254   1.427       .  A
C2254      N2255   1.430       .  S
N2255      O2259   1.262       .  A
N2255      O2260   1.261       .  A
N2258      O2262   1.262       .  A
N2258      O2261   1.263       .  A
C2263      C2264   1.416       .  A
C2263      C2268   1.383       .  A
C2263      H2270   1.085       .  S
C2264      C2265   1.418       .  A
C2265      C2266   1.408       .  A
C2265      N2272   1.427   1_545  S
C2266      C2267   1.410       .  A
C2266      H2271   1.085   1_545  S
C2267      C2268   1.397       .  A
C2268      N2269   1.428       .  S
N2269      O2273   1.261       .  A
N2269      O2274   1.263       .  A
N2272      O3058   1.262       .  A
N2272      O2275   1.262       .  A
O2276      N3054   1.262       .  A
C2277      C2278   1.413       .  A
C2277      C2282   1.384       .  A
C2277      H2284   1.085       .  S
C2278      C2279   1.416       .  A
C2279      C2280   1.397       .  A
C2279      N2286   1.426       .  S
C2280      C2281   1.402       .  A
C2280      H2285   1.085       .  S
C2281      C2282   1.396       .  A
N2283      O2287   1.262   1_554  A
N2283      O2288   1.262       .  A
N2286      O2290   1.262       .  A
N2286      O2289   1.262       .  A
C2291      C2292   1.391       .  A
C2291      C2296   1.391       .  A
C2291      H2298   1.086   1_545  S
C2292      C2293   1.408       .  A
C2293      C2294   1.398       .  A
C2293      N2300   1.425       .  S
C2294      C2295   1.401       .  A
C2294      H2299   1.079       .  S
C2295      C2296   1.432       .  A
C2296      N2297   1.434       .  S
N2297      O2301   1.262       .  A
N2297      O2302   1.262       .  A
N2300      O2304   1.262       .  A
N2300      O2303   1.262       .  A
C2305      C2306   1.396       .  A
C2305      C2310   1.374       .  A
C2305      H2312   1.076       .  S
C2306      C2307   1.409       .  A
C2307      C2308   1.387       .  A
C2307      N2314   1.432       .  S
C2308      C2309   1.401       .  A
C2308      H2313   1.084       .  S
C2309      C2310   1.404       .  A
C2310      N2311   1.427       .  S
N2311      O2315   1.262       .  A
N2314      O2318   1.262       .  A
N2314      O2317   1.262       .  A
C2319      C2320   1.400       .  A
C2319      C2324   1.390       .  A
C2319      H2326   1.082       .  S
C2320      C2321   1.413       .  A
C2321      C2322   1.384       .  A
C2321      N2328   1.429       .  S
C2322      C2323   1.402       .  A
C2322      H2327   1.085       .  S
C2323      C2324   1.409       .  A
C2324      N2325   1.428       .  S
N2325      O2329   1.262       .  A
N2325      O2330   1.262       .  A
N2328      O2332   1.262       .  A
N2328      O2331   1.262       .  A
C2333      C2334   1.400       .  A
C2333      C2338   1.386       .  A
C2333      H2340   1.084   1_545  S
C2334      C2335   1.398       .  A
C2335      C2336   1.383       .  A
C2336      C2337   1.410       .  A
C2336      H2341   1.079       .  S
C2337      C2338   1.419       .  A
C2338      N2339   1.431       .  S
N2339      O2343   1.262   1_545  A
N2339      O2344   1.262       .  A
N2342      O2346   1.262       .  A
N2342      O2345   1.262       .  A
C2347      C2348   1.546       .  S
C2347      C2353   1.562       .  S
C2347      C2351   1.539       .  S
C2347      C2728   1.519       .  S
C2348      H2355   1.072       .  S
C2348      C2349   1.361       .  D
C2349      C2350   1.607       .  S
C2349      C2394   1.592       .  S
C2350      C2354   1.584       .  S
C2350      C2352   1.643       .  S
C2350      H2356   1.108       .  S
C2351      H2357   1.086       .  S
C2351      C2352   1.342       .  D
C2352      C2359   1.616       .  S
C2353      H2358   1.086       .  S
C2353      C2354   1.360       .  D
C2354      N2551   1.492       .  S
C2359      C2361   1.495       .  S
C2359      C2363   1.531       .  S
C2359      C2362   1.640       .  S
C2360      C2387   1.600       .  S
C2360      C2364   1.512       .  S
C2360      C2366   1.536       .  S
C2360      C2365   1.618       .  S
C2361      C2369   1.366       .  A
C2361      C2364   1.382       .  A
C2362      C2365   1.441       .  A
C2363      C2377   1.386       .  A
C2363      C2366   1.399       .  A
C2364      C2367   1.367       .  A
C2366      C2374   1.384       .  A
C2367      N2368   1.341       .  A
C2367      H2380   1.066       .  S
N2368      C2513   1.419       .  S
N2368      C2369   1.334       .  A
C2369      H2370   1.078       .  S
C2371      N2372   1.384       .  A
C2371      H2381   1.082       .  S
N2372      C2373   1.391       .  A
N2372      N2454   1.474       .  S
C2373      H2379   1.082       .  S
C2374      N2375   1.359       .  A
C2374      H2376   1.081       .  S
N2375      C2431   1.444       .  S
N2375      C2377   1.353       .  A
C2377      H2378   1.083       .  S
C2382      C2383   1.533       .  S
C2382      C2388   1.558       .  S
C2382      C2386   1.554       .  S
C2382      C2714   1.510       .  S
C2383      H2390   1.085       .  S
C2383      C2384   1.349       .  D
C2384      C2385   1.620       .  S
C2384      C2488   1.593       .  S
C2385      C2389   1.577       .  S
C2385      C2387   1.614       .  S
C2385      H2391   1.107       .  S
C2386      H2392   1.080       .  S
C2386      C2387   1.362       .  D
C2388      H2393   1.087       .  S
C2388      C2389   1.347       .  D
C2389      N2574   1.478       .  S
C2394      C2396   1.483       .  S
C2394      C2398   1.556       .  S
C2394      C2397   1.656       .  S
C2395      C2478   1.572       .  S
C2395      C2399   1.517       .  S
C2395      C2401   1.552       .  S
C2395      C2400   1.547       .  S
C2396      C2404   1.354       .  A
C2396      C2399   1.365       .  A
C2397      C2408   1.437       .  A
C2397      C2400   1.432       .  A
C2398      C2412   1.399       .  A
C2398      C2401   1.394       .  A
C2399      C2402   1.347       .  A
C2401      C2409   1.381       .  A
C2402      N2403   1.341       .  A
C2402      H2415   1.077       .  S
N2403      C2434   1.399       .  S
N2403      C2404   1.342       .  A
C2404      H2405   1.063       .  S
C2406      N2407   1.370       .  A
C2406      H2416   1.082       .  S
N2407      N2501   1.458       .  S
C2409      N2410   1.360       .  A
C2409      H2411   1.080       .  S
N2410      C2422   1.475       .  S
N2410      C2412   1.361       .  A
C2412      H2413   1.069       .  S
C2417      C2418   1.530       .  S
C2417      C2423   1.539       .  S
C2417      C2421   1.551       .  S
C2417      C2697   1.492       .  S
C2418      H2425   1.085       .  S
C2418      C2419   1.346       .  D
C2419      C2420   1.637       .  S
C2419      C2442   1.591       .  S
C2420      C2424   1.604       .  S
C2420      C2422   1.569       .  S
C2420      H2426   1.110       .  S
C2421      H2427   1.079       .  S
C2421      C2422   1.355       .  D
C2423      H2428   1.085       .  S
C2423      C2424   1.342       .  D
C2424      C2535   1.570       .  S
C2429      C2430   1.559       .  S
C2429      C2435   1.566       .  S
C2429      C2433   1.513       .  S
C2429      C2686   1.515       .  S
C2430      H2437   1.085       .  S
C2430      C2431   1.373       .  D
C2431      C2432   1.524       .  S
C2432      C2436   1.554       .  S
C2432      C2434   1.503       .  S
C2432      H2438   1.108       .  S
C2433      H2439   1.088       .  S
C2433      C2434   1.323       .  D
C2435      H2440   1.079       .  S
C2435      C2436   1.373       .  D
C2436      C2559   1.529       .  S
C2441      C2525   1.588       .  S
C2441      C2443   1.526       .  S
C2441      C2445   1.492       .  S
C2441      C2444   1.629       .  S
C2442      C2446   1.524       .  S
C2442      C2448   1.489       .  S
C2442      C2447   1.625       .  S
C2443      C2451   1.376       .  A
C2443      C2446   1.398       .  A
C2444      C2455   1.429       .  A
C2444      C2447   1.437       .  A
C2445      C2459   1.350       .  A
C2445      C2448   1.377       .  A
C2446      C2449   1.375       .  A
C2447      C2453   1.432       .  A
C2448      C2456   1.363       .  A
C2449      N2450   1.349       .  A
C2449      H2462   1.080       .  S
N2450      C2469   1.432       .  S
N2450      C2451   1.352       .  A
C2451      H2452   1.081       .  S
C2453      N2454   1.388       .  A
C2453      H2463   1.081       .  S
N2454      C2455   1.388       .  A
C2455      H2461   1.082       .  S
C2456      N2457   1.326       .  A
C2456      H2458   1.079       .  S
N2457      C2481   1.392       .  S
N2457      C2459   1.326       .  A
C2459      H2460   1.061       .  S
C2464      C2465   1.530       .  S
C2464      C2470   1.561       .  S
C2464      C2468   1.548       .  S
C2464      C2669   1.512       .  S
C2465      H2472   1.074       .  S
C2465      C2466   1.348       .  D
C2466      C2467   1.553       .  S
C2466      C2489   1.515       .  S
C2467      C2471   1.522       .  S
C2467      C2469   1.536       .  S
C2467      H2473   1.111       .  S
C2468      H2474   1.078       .  S
C2468      C2469   1.365       .  D
C2470      H2475   1.086       .  S
C2470      C2471   1.357       .  D
C2471      N2544   1.442       .  S
C2476      C2477   1.581       .  S
C2476      C2482   1.576       .  S
C2476      C2480   1.526       .  S
C2476      C2655   1.534       .  S
C2477      H2484   1.083       .  S
C2477      C2478   1.391       .  D
C2478      C2479   1.574       .  S
C2479      C2483   1.530       .  S
C2479      C2481   1.491       .  S
C2479      H2485   1.110       .  S
C2480      H2486   1.089       .  S
C2480      C2481   1.325       .  D
C2482      H2487   1.086       .  S
C2482      C2483   1.364       .  D
C2483      N2567   1.468       .  S
C2488      C2490   1.530       .  S
C2488      C2492   1.558       .  S
C2488      C2491   1.668       .  S
C2489      C2493   1.535       .  S
C2489      C2495   1.507       .  S
C2489      C2494   1.540       .  S
C2490      C2498   1.385       .  A
C2490      C2493   1.388       .  A
C2491      C2502   1.455       .  A
C2491      C2494   1.423       .  A
C2492      C2506   1.398       .  A
C2492      C2495   1.360       .  A
C2493      C2496   1.379       .  A
C2494      C2500   1.390       .  A
C2495      C2503   1.366       .  A
C2496      N2497   1.353       .  A
C2496      H2509   1.078       .  S
N2497      C2516   1.448       .  S
N2497      C2498   1.357       .  A
C2498      H2499   1.079       .  S
C2500      N2501   1.350       .  A
C2500      H2510   1.075       .  S
N2501      C2502   1.401       .  A
C2502      H2508   1.081       .  S
C2503      N2504   1.350       .  A
C2503      H2505   1.072       .  S
N2504      C2528   1.459       .  S
N2504      C2506   1.359       .  A
C2506      H2507   1.055       .  S
C2511      C2512   1.536       .  S
C2511      C2517   1.551       .  S
C2511      C2515   1.575       .  S
C2511      C2641   1.520       .  S
C2512      H2519   1.076       .  S
C2512      C2513   1.346       .  D
C2513      C2514   1.516       .  S
C2514      C2518   1.563       .  S
C2514      C2516   1.520       .  S
C2514      H2520   1.111       .  S
C2515      H2521   1.086       .  S
C2515      C2516   1.363       .  D
C2517      H2522   1.085   1_554  S
C2517      C2518   1.362       .  D
C2518      C2536   1.528       .  S
C2523      C2524   1.545       .  S
C2523      C2529   1.545       .  S
C2523      C2527   1.536       .  S
C2523      C2627   1.495       .  S
C2524      H2531   1.084       .  S
C2524      C2525   1.343       .  D
C2525      C2526   1.621       .  S
C2526      C2530   1.630       .  S
C2526      C2528   1.549       .  S
C2526      H2532   1.109       .  S
C2527      H2533   1.089       .  S
C2527      C2528   1.338       .  D
C2529      H2534   1.081       .  S
C2529      C2530   1.356       .  D
C2530      C2558   1.594       .  S
C2535      C2537   1.524       .  S
C2535      C2539   1.562       .  S
C2535      C2538   1.636       .  S
C2536      C2540   1.518       .  S
C2536      C2542   1.538       .  S
C2536      C2541   1.572       .  S
C2537      C2545   1.377       .  A
C2537      C2540   1.367       .  A
C2538      C2940   1.435   1_554  A
C2538      C2541   1.427       .  A
C2539      C2553   1.402       .  A
C2539      C2542   1.370       .  A
C2540      C2543   1.378       .  A
C2541      C2938   1.403   1_554  A
C2542      C2550   1.390       .  A
C2543      N2544   1.350       .  A
C2543      H2556   1.076       .  S
N2544      C2545   1.356       .  A
C2545      H2546   1.068       .  S
C2547      C2932   1.402       .  A
C2547      N2548   1.371       .  A
C2547      H2557   1.082       .  S
N2548      C2549   1.390       .  A
N2548      N2571   1.456       .  S
C2549      C2929   1.435       .  A
C2549      H2555   1.081       .  S
C2550      N2551   1.360       .  A
C2550      H2552   1.075       .  S
N2551      C2553   1.377       .  A
C2553      H2554   1.076       .  S
C2558      C2560   1.543       .  S
C2558      C2562   1.559       .  S
C2558      C2561   1.648       .  S
C2559      C2563   1.535       .  S
C2559      C2565   1.524       .  S
C2559      C2564   1.556       .  S
C2560      C2568   1.394       .  A
C2560      C2563   1.379       .  A
C2561      C2572   1.443       .  A
C2561      C2564   1.429       .  A
C2562      C2576   1.401       .  A
C2562      C2565   1.365       .  A
C2563      C2566   1.388       .  A
C2564      C2570   1.393       .  A
C2565      C2573   1.383       .  A
C2566      N2567   1.357       .  A
C2566      H2579   1.076       .  S
N2567      C2568   1.362       .  A
C2568      H2569   1.079       .  S
C2570      N2571   1.361       .  A
C2570      H2580   1.081       .  S
N2571      C2572   1.397       .  A
C2572      H2578   1.082       .  S
C2573      N2574   1.349       .  A
C2573      H2575   1.067       .  S
N2574      C2576   1.376       .  A
C2576      H2577   1.078       .  S
N2581      N2582   1.316       .  A
N2581     Mn2610   2.192       .  S
N2583      N2584   1.325       .  A
N2583     Mn2599   2.167       .  S
N2585      N2586   1.303       .  A
N2585     Mn2610   2.132   1_455  S
N2587      N2588   1.310       .  A
N2587     Mn2599   2.149       .  S
C2589      C2725   1.465       .  S
C2590      C2683   1.439       .  S
N2591      N2592   1.317       .  A
N2591     Mn2621   2.174       .  S
N2593      N2594   1.309       .  A
N2593     Mn2599   2.166       .  S
N2594      C2992   1.338       .  A
N2595      N2596   1.320       .  A
N2595     Mn2621   2.179       .  S
N2597      N2598   1.313       .  A
N2597     Mn2599   2.173       .  S
N2598      C2600   1.342       .  A
C2600      C2711   1.459       .  S
C2601      N2985   1.339       .  A
C2601      C2644   1.470       .  S
N2602      N2603   1.327       .  A
N2602     Mn2610   2.207       .  S
N2603      C2611   1.364       .  A
N2604      N2605   1.316       .  A
N2604     Mn2622   2.157   1_545  S
N2606      N2607   1.306       .  A
N2606     Mn2610   2.118       .  S
N2607      C3003   1.340       .  A
N2608     Mn2622   2.142       .  S
N2609      C2611   1.341       .  A
C2611      C2658   1.460       .  S
C2612      N2998   1.340       .  A
C2612      C2700   1.431       .  S
N2613      N2614   1.312       .  A
N2613      N2619   1.318       .  A
N2613     Mn2621   2.216       .  S
N2614      C3015   1.353       .  A
N2615      N2616   1.315       .  A
N2615      N2617   1.302       .  A
N2615     Mn2622   2.125       .  S
N2616      C2625   1.346       .  A
N2617      N2618   1.311       .  A
N2617     Mn2621   2.162       .  S
N2618      C2625   1.355       .  A
N2619      N2620   1.319       .  A
N2619     Mn2622   2.158       .  S
N2620      C3015   1.346       .  A
Mn2621    Cl2623   2.518       .  S
Mn2622    Cl2623   2.510       .  S
C2624      N3005   1.352       .  A
C2624      N3011   1.346       .  A
C2624      C2672   1.449   1_556  S
C2625      C2630   1.432       .  S
C2626      C2627   1.415       .  A
C2626      C2631   1.375       .  A
C2626      H2633   1.079       .  S
C2627      C2628   1.417       .  A
C2628      C2629   1.386       .  A
C2628      N2635   1.428       .  S
C2629      C2630   1.400       .  A
C2629      H2634   1.085       .  S
C2630      C2631   1.389       .  A
C2631      N2632   1.427       .  S
N2632      O2636   1.260       .  A
N2632      O2637   1.263       .  A
N2635      O2639   1.262       .  A
N2635      O2638   1.262       .  A
C2640      C2641   1.389   1_556  A
C2640      C2645   1.386       .  A
C2640      H2647   1.085       .  S
C2641      C2642   1.422       .  A
C2642      C2643   1.397       .  A
C2642      N2649   1.430       .  S
C2643      C2644   1.394       .  A
C2643      H2648   1.084       .  S
C2644      C2645   1.428   1_554  A
C2645      N2646   1.430       .  S
N2646      O2650   1.262   1_556  A
N2646      O2651   1.260       .  A
N2649      O2653   1.262       .  A
N2649      O2652   1.263       .  A
C2654      C2655   1.420       .  A
C2654      C2659   1.386       .  A
C2654      H2661   1.085       .  S
C2655      C2656   1.418       .  A
C2656      C2657   1.411       .  A
C2656      N2663   1.426       .  S
C2657      C2658   1.411       .  A
C2657      H2662   1.084       .  S
C2658      C2659   1.395       .  A
C2659      N2660   1.428       .  S
N2660      O2664   1.262       .  A
N2660      O2665   1.262       .  A
N2663      O2666   1.262       .  A
C2668      C2669   1.410       .  A
C2668      C2673   1.382       .  A
C2668      H2675   1.085       .  S
C2669      C2670   1.417       .  A
C2670      C2671   1.394       .  A
C2670      N2677   1.427       .  S
C2671      C2672   1.400       .  A
C2671      H2676   1.085       .  S
C2672      C2673   1.395       .  A
C2673      N3065   1.427       .  S
N2674      C3064   1.427       .  S
N2674      O2678   1.262       .  A
N2674      O2679   1.262       .  A
N2677      O2681   1.262       .  A
N2677      O2680   1.263       .  A
C2682      C2683   1.389       .  A
C2682      C2687   1.390       .  A
C2682      H2689   1.085       .  S
C2683      C2684   1.406       .  A
C2684      C2685   1.394       .  A
C2684      N2691   1.426       .  S
C2685      C2686   1.402       .  A
C2685      H2690   1.078       .  S
C2686      C2687   1.434       .  A
C2687      N2688   1.434       .  S
N2688      O2692   1.263       .  A
N2688      O2693   1.262       .  A
N2691      O2695   1.262       .  A
N2691      O2694   1.262       .  A
C2696      C2697   1.394       .  A
C2696      C2701   1.376       .  A
C2696      H2703   1.077       .  S
C2697      C2698   1.411       .  A
C2698      C2699   1.388   1_554  A
C2698      N2705   1.431       .  S
C2699      C2700   1.398       .  A
C2699      H2704   1.084       .  S
C2700      C2701   1.406   1_556  A
C2701      N2702   1.427       .  S
N2702      O2706   1.262       .  A
N2702      O3098   1.262       .  A
N2705      O2709   1.262       .  A
N2705      O2708   1.262       .  A
O2707      N3093   1.261       .  A
C2710      C2711   1.402       .  A
C2710      C2715   1.394       .  A
C2710      H2717   1.084       .  S
C2711      C2712   1.411       .  A
C2712      C2713   1.381       .  A
C2712      N2719   1.430       .  S
C2713      C2714   1.403       .  A
C2713      H2718   1.085       .  S
C2714      C2715   1.408       .  A
C2715      N2716   1.427       .  S
N2716      O2720   1.262       .  A
N2716      O2721   1.263       .  A
N2719      O2723   1.262       .  A
N2719      O2722   1.262       .  A
C2724      C2725   1.399       .  A
C2724      C2729   1.393       .  A
C2724      H2731   1.084       .  S
C2725      C2726   1.407       .  A
C2726      C2727   1.385       .  A
C2727      C2728   1.408       .  A
C2727      H2732   1.085       .  S
C2728      C2729   1.421       .  A
C2729      N2730   1.426       .  S
N2730      O2734   1.262       .  A
N2730      O2735   1.262       .  A
N2733      O2737   1.262       .  A
N2733      O2736   1.262       .  A
C2738      C2739   1.546       .  S
C2738      C2744   1.563       .  S
C2738      C2742   1.539       .  S
C2738      C3119   1.520       .  S
C2739      H2746   1.072       .  S
C2739      C2740   1.361       .  D
C2740      C2741   1.606       .  S
C2740      C2785   1.591       .  S
C2741      C2745   1.582       .  S
C2741      C2743   1.643       .  S
C2741      H2747   1.109       .  S
C2742      H2748   1.086       .  S
C2742      C2743   1.341       .  D
C2743      C2750   1.614       .  S
C2744      H2749   1.086       .  S
C2744      C2745   1.361       .  D
C2745      N2942   1.491       .  S
C2750      C2752   1.495       .  S
C2750      C2754   1.530       .  S
C2750      C2753   1.638       .  S
C2751      C2778   1.598       .  S
C2751      C2755   1.511       .  S
C2751      C2757   1.535       .  S
C2751      C2756   1.618       .  S
C2752      C2760   1.366       .  A
C2752      C2755   1.382       .  A
C2753      C2756   1.440       .  A
C2754      C2768   1.385       .  A
C2754      C2757   1.399       .  A
C2755      C2758   1.367       .  A
C2757      C2765   1.384       .  A
C2758      N2759   1.341       .  A
C2758      H2771   1.063       .  S
N2759      C2904   1.418       .  S
N2759      C2760   1.334       .  A
C2760      H2761   1.078       .  S
C2762      N2763   1.384       .  A
C2762      H2772   1.081       .  S
N2763      C2764   1.391       .  A
N2763      N2845   1.474       .  S
C2764      H2770   1.082       .  S
C2765      N2766   1.358       .  A
C2765      H2767   1.081       .  S
N2766      C2822   1.443       .  S
N2766      C2768   1.353       .  A
C2768      H2769   1.083       .  S
C2773      C2774   1.533       .  S
C2773      C2779   1.558       .  S
C2773      C2777   1.552       .  S
C2773      C3105   1.509       .  S
C2774      H2781   1.085       .  S
C2774      C2775   1.349       .  D
C2775      C2776   1.618       .  S
C2775      C2879   1.591       .  S
C2776      C2780   1.575       .  S
C2776      C2778   1.614       .  S
C2776      H2782   1.106       .  S
C2777      H2783   1.079       .  S
C2777      C2778   1.360       .  D
C2779      H2784   1.087       .  S
C2779      C2780   1.349       .  D
C2780      N2965   1.477       .  S
C2785      C2787   1.483       .  S
C2785      C2789   1.557       .  S
C2785      C2788   1.655       .  S
C2786      C2869   1.570       .  S
C2786      C2790   1.517       .  S
C2786      C2792   1.552       .  S
C2786      C2791   1.546       .  S
C2787      C2795   1.354       .  A
C2787      C2790   1.365       .  A
C2788      C2799   1.436       .  A
C2788      C2791   1.431       .  A
C2789      C2803   1.399       .  A
C2789      C2792   1.395       .  A
C2790      C2793   1.347       .  A
C2792      C2800   1.381       .  A
C2793      N2794   1.341       .  A
C2793      H2806   1.077       .  S
N2794      C2825   1.400       .  S
N2794      C2795   1.343       .  A
C2795      H2796   1.060       .  S
C2797      N2798   1.369       .  A
C2797      H2807   1.082       .  S
N2798      N2892   1.456       .  S
C2800      N2801   1.359       .  A
C2800      H2802   1.079       .  S
N2801      C2813   1.474       .  S
N2801      C2803   1.361       .  A
C2803      H2804   1.069       .  S
C2808      C2809   1.528       .  S
C2808      C2814   1.539       .  S
C2808      C2812   1.552       .  S
C2808      C3088   1.491       .  S
C2809      H2816   1.085       .  S
C2809      C2810   1.345       .  D
C2810      C2811   1.637       .  S
C2810      C2833   1.589       .  S
C2811      C2815   1.604       .  S
C2811      C2813   1.568       .  S
C2811      H2817   1.110       .  S
C2812      H2818   1.080       .  S
C2812      C2813   1.356       .  D
C2814      H2819   1.085       .  S
C2814      C2815   1.342       .  D
C2815      C2926   1.570       .  S
C2820      C2821   1.559       .  S
C2820      C2826   1.565       .  S
C2820      C2824   1.514       .  S
C2820      C3077   1.514       .  S
C2821      H2828   1.085       .  S
C2821      C2822   1.373       .  D
C2822      C2823   1.524       .  S
C2823      C2827   1.553       .  S
C2823      C2825   1.504       .  S
C2823      H2829   1.109       .  S
C2824      H2830   1.088       .  S
C2824      C2825   1.324       .  D
C2826      H2831   1.079       .  S
C2826      C2827   1.371       .  D
C2827      C2950   1.526       .  S
C2832      C2916   1.586       .  S
C2832      C2834   1.524       .  S
C2832      C2836   1.491       .  S
C2832      C2835   1.628       .  S
C2833      C2837   1.522       .  S
C2833      C2839   1.490       .  S
C2833      C2838   1.625       .  S
C2834      C2842   1.376       .  A
C2834      C2837   1.398       .  A
C2835      C2846   1.429       .  A
C2835      C2838   1.437       .  A
C2836      C2850   1.350       .  A
C2836      C2839   1.379       .  A
C2837      C2840   1.375       .  A
C2838      C2844   1.431       .  A
C2839      C2847   1.364       .  A
C2840      N2841   1.348       .  A
C2840      H2853   1.080       .  S
N2841      C2860   1.431       .  S
N2841      C2842   1.351       .  A
C2842      H2843   1.081       .  S
C2844      N2845   1.388       .  A
C2844      H2854   1.081       .  S
N2845      C2846   1.388       .  A
C2846      H2852   1.082       .  S
C2847      N2848   1.326       .  A
C2847      H2849   1.079       .  S
N2848      C2872   1.393       .  S
N2848      C2850   1.326       .  A
C2850      H2851   1.060       .  S
C2855      C2856   1.531       .  S
C2855      C2861   1.561       .  S
C2855      C2859   1.548       .  S
C2855      C3060   1.512       .  S
C2856      H2863   1.074       .  S
C2856      C2857   1.347       .  D
C2857      C2858   1.553       .  S
C2857      C2880   1.514       .  S
C2858      C2862   1.522       .  S
C2858      C2860   1.535       .  S
C2858      H2864   1.111       .  S
C2859      H2865   1.078       .  S
C2859      C2860   1.365       .  D
C2861      H2866   1.086       .  S
C2861      C2862   1.357       .  D
C2862      N2935   1.443       .  S
C2867      C2868   1.580       .  S
C2867      C2873   1.577       .  S
C2867      C2871   1.527       .  S
C2867      C3046   1.534       .  S
C2868      H2875   1.083       .  S
C2868      C2869   1.391       .  D
C2869      C2870   1.574       .  S
C2870      C2874   1.531       .  S
C2870      C2872   1.493       .  S
C2870      H2876   1.110       .  S
C2871      H2877   1.089       .  S
C2871      C2872   1.325       .  D
C2873      H2878   1.086       .  S
C2873      C2874   1.365       .  D
C2874      N2958   1.470       .  S
C2879      C2881   1.528       .  S
C2879      C2883   1.560       .  S
C2879      C2882   1.667       .  S
C2880      C2884   1.534       .  S
C2880      C2886   1.507       .  S
C2880      C2885   1.539       .  S
C2881      C2889   1.385       .  A
C2881      C2884   1.388       .  A
C2882      C2893   1.454       .  A
C2882      C2885   1.422       .  A
C2883      C2897   1.400       .  A
C2883      C2886   1.361       .  A
C2884      C2887   1.378       .  A
C2885      C2891   1.389       .  A
C2886      C2894   1.366       .  A
C2887      N2888   1.352       .  A
C2887      H2900   1.078       .  S
N2888      C2907   1.447       .  S
N2888      C2889   1.356       .  A
C2889      H2890   1.078       .  S
C2891      N2892   1.350       .  A
C2891      H2901   1.075       .  S
N2892      C2893   1.400       .  A
C2893      H2899   1.081       .  S
C2894      N2895   1.350       .  A
C2894      H2896   1.072       .  S
N2895      C2919   1.461       .  S
N2895      C2897   1.360       .  A
C2897      H2898   1.057       .  S
C2902      C2903   1.537       .  S
C2902      C2908   1.551       .  S
C2902      C2906   1.574       .  S
C2902      C3032   1.520       .  S
C2903      H2910   1.077       .  S
C2903      C2904   1.346       .  D
C2904      C2905   1.515       .  S
C2905      C2909   1.563       .  S
C2905      C2907   1.521       .  S
C2905      H2911   1.111       .  S
C2906      H2912   1.086       .  S
C2906      C2907   1.362       .  D
C2908      H2913   1.085       .  S
C2908      C2909   1.363       .  D
C2909      C2927   1.528       .  S
C2914      C2915   1.544       .  S
C2914      C2920   1.544       .  S
C2914      C2918   1.538       .  S
C2914      C3018   1.496       .  S
C2915      H2922   1.084       .  S
C2915      C2916   1.342       .  D
C2916      C2917   1.621       .  S
C2917      C2921   1.629       .  S
C2917      C2919   1.549       .  S
C2917      H2923   1.109       .  S
C2918      H2924   1.089       .  S
C2918      C2919   1.339       .  D
C2920      H2925   1.080       .  S
C2920      C2921   1.355       .  D
C2921      C2949   1.591       .  S
C2926      C2928   1.524       .  S
C2926      C2930   1.562       .  S
C2926      C2929   1.637       .  S
C2927      C2931   1.518       .  S
C2927      C2933   1.538       .  S
C2927      C2932   1.570       .  S
C2928      C2936   1.377       .  A
C2928      C2931   1.366       .  A
C2929      C2932   1.427       .  A
C2930      C2944   1.402       .  A
C2930      C2933   1.371       .  A
C2931      C2934   1.377       .  A
C2933      C2941   1.390       .  A
C2934      N2935   1.351       .  A
C2934      H2947   1.076       .  S
N2935      C2936   1.357       .  A
C2936      H2937   1.067       .  S
C2938      N2939   1.372       .  A
C2938      H2948   1.082       .  S
N2939      C2940   1.390       .  A
N2939      N2962   1.457       .  S
C2940      H2946   1.081       .  S
C2941      N2942   1.360       .  A
C2941      H2943   1.075       .  S
N2942      C2944   1.377       .  A
C2944      H2945   1.076       .  S
C2949      C2951   1.543       .  S
C2949      C2953   1.559       .  S
C2949      C2952   1.648       .  S
C2950      C2954   1.535       .  S
C2950      C2956   1.523       .  S
C2950      C2955   1.556       .  S
C2951      C2959   1.394       .  A
C2951      C2954   1.377       .  A
C2952      C2963   1.444       .  A
C2952      C2955   1.428       .  A
C2953      C2967   1.402       .  A
C2953      C2956   1.365       .  A
C2954      C2957   1.389       .  A
C2955      C2961   1.393       .  A
C2956      C2964   1.383       .  A
C2957      N2958   1.358       .  A
C2957      H2970   1.076       .  S
N2958      C2959   1.363       .  A
C2959      H2960   1.078       .  S
C2961      N2962   1.360       .  A
C2961      H2971   1.081       .  S
N2962      C2963   1.397       .  A
C2963      H2969   1.082       .  S
C2964      N2965   1.349       .  A
C2964      H2966   1.067       .  S
N2965      C2967   1.376       .  A
C2967      H2968   1.078       .  S
N2972      N2973   1.316   1_556  A
N2972     Mn3001   2.189       .  S
N2974      N2975   1.325       .  A
N2974     Mn2990   2.167       .  S
N2976      N2977   1.304       .  A
N2976     Mn3001   2.134   1_455  S
N2978      N2979   1.310   1_556  A
N2978     Mn2990   2.150       .  S
C2980      C3116   1.466       .  S
C2981      C3074   1.440       .  S
N2982      N2983   1.317       .  A
N2982     Mn3012   2.174       .  S
N2984      N2985   1.310   1_556  A
N2984     Mn2990   2.167       .  S
N2986      N2987   1.320       .  A
N2986     Mn3012   2.177       .  S
N2988      N2989   1.312       .  A
N2988     Mn2990   2.168       .  S
N2989      C2991   1.342       .  A
C2991      C3102   1.457       .  S
C2992      C3035   1.470       .  S
N2993      N2994   1.328       .  A
N2993     Mn3001   2.209       .  S
N2994      C3002   1.365       .  A
N2995      N2996   1.317       .  A
N2995     Mn3013   2.161   1_545  S
N2997      N2998   1.306       .  A
N2997     Mn3001   2.121       .  S
N2999     Mn3013   2.142       .  S
N3000      C3002   1.341       .  A
C3002      C3049   1.459       .  S
C3003      C3091   1.432       .  S
N3004      N3005   1.312       .  A
N3004      N3010   1.318       .  A
N3004     Mn3012   2.215       .  S
N3006      N3007   1.315       .  A
N3006      N3008   1.302       .  A
N3006     Mn3013   2.128       .  S
N3007      C3016   1.347       .  A
N3008      N3009   1.311       .  A
N3008     Mn3012   2.160       .  S
N3009      C3016   1.354       .  A
N3010      N3011   1.318       .  A
N3010     Mn3013   2.156       .  S
Mn3012    Cl3014   2.513       .  S
Mn3013    Cl3014   2.515       .  S
C3015      C3063   1.450       .  S
C3016      C3021   1.433       .  S
C3017      C3018   1.415       .  A
C3017      C3022   1.376       .  A
C3017      H3024   1.079       .  S
C3018      C3019   1.417       .  A
C3019      C3020   1.387       .  A
C3019      N3026   1.427       .  S
C3020      C3021   1.400       .  A
C3020      H3025   1.085       .  S
C3021      C3022   1.389       .  A
C3022      N3023   1.426       .  S
N3023      O3027   1.260       .  A
N3023      O3028   1.263       .  A
N3026      O3030   1.262       .  A
N3026      O3029   1.262       .  A
C3031      C3032   1.389       .  A
C3031      C3036   1.386       .  A
C3031      H3038   1.085       .  S
C3032      C3033   1.422       .  A
C3033      C3034   1.397       .  A
C3033      N3040   1.430       .  S
C3034      C3035   1.394       .  A
C3034      H3039   1.084       .  S
C3035      C3036   1.429       .  A
C3036      N3037   1.431       .  S
N3037      O3041   1.262       .  A
N3037      O3042   1.260       .  A
N3040      O3044   1.262       .  A
N3040      O3043   1.263       .  A
C3045      C3046   1.419       .  A
C3045      C3050   1.385       .  A
C3045      H3052   1.084       .  S
C3046      C3047   1.419       .  A
C3047      C3048   1.412       .  A
C3047      N3054   1.426       .  S
C3048      C3049   1.412       .  A
C3048      H3053   1.084       .  S
C3049      C3050   1.394       .  A
C3050      N3051   1.428       .  S
N3051      O3055   1.262       .  A
N3051      O3056   1.262       .  A
N3054      O3057   1.262       .  A
C3059      C3060   1.410       .  A
C3059      C3064   1.381       .  A
C3059      H3066   1.085       .  S
C3060      C3061   1.417       .  A
C3061      C3062   1.394       .  A
C3061      N3068   1.427       .  S
C3062      C3063   1.400       .  A
C3062      H3067   1.085       .  S
C3063      C3064   1.395       .  A
N3065      O3069   1.262   1_554  A
N3065      O3070   1.262       .  A
N3068      O3072   1.262       .  A
N3068      O3071   1.263       .  A
C3073      C3074   1.390       .  A
C3073      C3078   1.391       .  A
C3073      H3080   1.085       .  S
C3074      C3075   1.404       .  A
C3075      C3076   1.392       .  A
C3075      N3082   1.426       .  S
C3076      C3077   1.402       .  A
C3076      H3081   1.077       .  S
C3077      C3078   1.433       .  A
C3078      N3079   1.434       .  S
N3079      O3083   1.263       .  A
N3079      O3084   1.262       .  A
N3082      O3086   1.262       .  A
N3082      O3085   1.262       .  A
C3087      C3088   1.393       .  A
C3087      C3092   1.375       .  A
C3087      H3094   1.077       .  S
C3088      C3089   1.412       .  A
C3089      C3090   1.388       .  A
C3089      N3096   1.432       .  S
C3090      C3091   1.399       .  A
C3090      H3095   1.084       .  S
C3091      C3092   1.406       .  A
C3092      N3093   1.427       .  S
N3093      O3097   1.262       .  A
N3096      O3100   1.262       .  A
N3096      O3099   1.262       .  A
C3101      C3102   1.402       .  A
C3101      C3106   1.393       .  A
C3101      H3108   1.084       .  S
C3102      C3103   1.412       .  A
C3103      C3104   1.381       .  A
C3103      N3110   1.430       .  S
C3104      C3105   1.402       .  A
C3104      H3109   1.085       .  S
C3105      C3106   1.408       .  A
C3106      N3107   1.427       .  S
N3107      O3111   1.262       .  A
N3107      O3112   1.263       .  A
N3110      O3114   1.262       .  A
N3110      O3113   1.262       .  A
C3115      C3116   1.399       .  A
C3115      C3120   1.393       .  A
C3115      H3122   1.084       .  S
C3116      C3117   1.406       .  A
C3117      C3118   1.385       .  A
C3118      C3119   1.408       .  A
C3118      H3123   1.085       .  S
C3119      C3120   1.421       .  A
C3120      N3121   1.427       .  S
N3121      O3125   1.262       .  A
N3121      O3126   1.262       .  A
N3124      O3128   1.262       .  A
N3124      O3127   1.262       .  A
