geometry optimzed in LAMMPS
_audit_creation_date              2020-11-30 
_audit_creation_method            'lammps2cif' 
_symmetry_space_group_name_H-M    'P1' 
_symmetry_Int_Tables_number       1 
_symmetry_cell_setting            triclinic 
loop_ 
_symmetry_equiv_pos_as_xyz 
  x,y,z 
_cell_length_a                    31.86789153436272 
_cell_length_b                    31.772091433477694 
_cell_length_c                    30.327709777095 
_cell_angle_alpha                 90.83954578266234 
_cell_angle_beta                  90.26012611883502 
_cell_angle_gamma                 90.52196793506036 
loop_ 
_atom_site_label 
_atom_site_type_symbol 
_atom_site_fract_x 
_atom_site_fract_y 
_atom_site_fract_z 
_atom_site_charge 
C1          C  0.35630851  0.62737476  0.64145227    -0.02330
N2          N  0.45582991  0.42123044  0.43856139    -0.05960
N3          N  0.45042478  0.38225306  0.45177793    -0.58080
N4          N  0.45179843  0.51496973  0.39926397    -0.05640
N5          N  0.41826304  0.50460363  0.37615872    -0.60210
N6          N  0.48457222  0.49772341  0.38031026    -0.05240
N7          N  0.47364474  0.48144811  0.34199186    -0.58060
N8          N  0.42869620  0.44565582  0.45801528    -0.04920
N9          N  0.40465543  0.42423176  0.48444844    -0.60560
C10         C  0.42000761  0.38512509  0.48229038     0.96210
C11         C  0.43185194  0.47817992  0.34446842     0.95990
N12         N  0.49663824  0.58348284  0.49916808    -0.06150
N13         N  0.51596203  0.61074748  0.47336161    -0.58660
N14         N  0.43972939  0.50068916  0.53765430    -0.04270
N15         N  0.40780093  0.48385896  0.55766981    -0.59910
N16         N  0.46874809  0.51292367  0.56551772    -0.06180
N17         N  0.45664203  0.50517906  0.60595174    -0.58930
N18         N  0.45967906  0.57402894  0.48199059    -0.03910
N19         N  0.45173883  0.59727760  0.44801645    -0.60000
Mn20       Mn  0.44436154  0.50972466  0.46990497     1.18440
C21         C  0.48718823  0.61872963  0.44189696     0.98300
C22         C  0.41788397  0.48743206  0.60069239     0.98960
N23         N  0.57321505  0.48317096  0.39913870    -0.06200
N24         N  0.56505390  0.46356223  0.36180903    -0.62510
N25         N  0.58107099  0.40516296  0.48023971    -0.05000
N26         N  0.58661404  0.37922443  0.51254617    -0.63180
N27         N  0.54350132  0.40117819  0.46333012    -0.05700
N28         N  0.52172295  0.37469894  0.48786198    -0.62770
N29         N  0.60568341  0.46726039  0.41932011    -0.04600
N30         N  0.61274021  0.43028785  0.40063595    -0.63460
Mn31       Mn  0.51566055  0.44929772  0.41857965     1.10660
C32         C  0.58541088  0.42768969  0.36636073     0.99520
C33         C  0.54927050  0.36076287  0.51755467     0.99590
N34         N  0.55893890  0.48739937  0.57820009    -0.05710
N35         N  0.56790354  0.49384244  0.61972447    -0.61090
N36         N  0.61746901  0.53078630  0.50416981    -0.05030
N37         N  0.64682924  0.54885450  0.48140494    -0.57810
N38         N  0.58912237  0.55803080  0.51668463    -0.06340
N39         N  0.59715099  0.59436353  0.49829845    -0.60650
N40         N  0.58851815  0.46471413  0.55984059    -0.05330
N41         N  0.61934080  0.45925357  0.58797055    -0.57840
Mn42       Mn  0.52819236  0.53771881  0.54230393     1.20190
Mn43       Mn  0.59966685  0.46724383  0.49062661     1.10090
Cl44       Cl  0.52169345  0.49122131  0.48071265    -0.85810
C45         C  0.60802594  0.48145270  0.62401860     0.96520
C46         C  0.63190301  0.58748852  0.47431832     0.96320
C47         C  0.65856304  0.33415820  0.63006013    -0.02330
C48         C  0.36219001  0.32273323  0.31716571    -0.02330
C49         C  0.67543603  0.63271002  0.30793530    -0.02330
C50         C  0.38259341  0.64852127  0.31299641    -0.02330
C51         C  0.65876775  0.30782277  0.30780409    -0.02330
C52         C  0.35885807  0.32202634  0.63670902    -0.02330
C53         C  0.66897550  0.64599087  0.63694967    -0.02330
C54         C  0.27252099  0.21735029  0.98046473     0.00720
C55         C  0.24758915  0.25267413  0.97891361     0.00720
C56         C  0.24081325  0.97221107  0.24695044     0.00720
C57         C  0.27213029  0.97498509  0.21592402     0.00720
C58         C  0.01913019  0.20601765  0.24546929     0.00720
C59         C  0.02638418  0.23970118  0.21697465     0.00720
C60         C  0.50640834  0.23063568  0.23281269     0.00720
C61         C  0.50583295  0.19785613  0.20143854     0.00720
C62         C  0.28432776  0.23909067  0.47836026     0.00720
C63         C  0.25375482  0.20775204  0.47757730     0.00720
C64         C  0.28996005  0.48710028  0.25341778     0.00720
C65         C  0.25376586  0.49066395  0.22688001     0.00720
C66         C  0.24889758  0.71743898  0.98335298     0.00720
C67         C  0.28348488  0.74437583  0.98131285     0.00720
C68         C  0.77742148  0.26181350  0.97673916     0.00720
C69         C  0.74584117  0.23121093  0.97815366     0.00720
C70         C  0.01481528  0.22677603  0.70499091     0.00720
C71         C  0.01249969  0.26064627  0.73612991     0.00720
C72         C  0.78280645  0.46422524  0.21378304     0.00720
C73         C  0.74680404  0.46597675  0.24048533     0.00720
C74         C  0.27680980  0.48523253  0.70888692     0.00720
C75         C  0.24258727  0.48516284  0.73752525     0.00720
C76         C  0.85030617  0.64430899  0.81194678    -0.02330
N77         N  0.97592334  0.47897161  0.87326449    -0.05960
N78         N  0.94221863  0.47190338  0.84937608    -0.58080
N79         N  0.07432612  0.49937770  0.90396045    -0.05640
N80         N  0.11415440  0.50570613  0.90592726    -0.60210
N81         N  0.06587868  0.46274721  0.88674805    -0.05240
N82         N  0.10037051  0.44591379  0.87041684    -0.58060
N83         N  0.98523499  0.51898390  0.87666712    -0.04920
N84         N  0.95844233  0.54057168  0.85459709    -0.60560
C85         C  0.93269106  0.51073451  0.83724153     0.96210
C86         C  0.13008070  0.47580758  0.87983017     0.95990
N87         N  0.07206415  0.56162707  0.00655245    -0.06150
N88         N  0.10705820  0.55471132  0.02678416    -0.58660
N89         N  0.98490145  0.58624636  0.94801050    -0.04270
N90         N  0.94695748  0.59420101  0.93254879    -0.59910
N91         N  0.98619168  0.59198451  0.99085457    -0.06180
N92         N  0.95178792  0.60887911  0.00421487    -0.58930
N93         N  0.07832857  0.57016325  0.96538396    -0.03910
N94         N  0.11892608  0.57423365  0.95806304    -0.60000
Mn95       Mn  0.03112583  0.54590839  0.92051782     1.18440
C96         C  0.13650642  0.56429222  0.99717630     0.98300
C97         C  0.92711620  0.60894906  0.96862172     0.98960
N98         N  0.04036916  0.39918763  0.95283965    -0.06200
N99         N  0.07459813  0.38208783  0.93959120    -0.62510
N100        N  0.94409255  0.41513563  0.97821512    -0.05000
N101        N  0.91883569  0.38445333  0.98994098    -0.63180
N102        N  0.95402295  0.41180161  0.93662982    -0.05700
N103        N  0.93800669  0.37773321  0.91956983    -0.62770
N104        N  0.03755569  0.40062383  0.99594682    -0.04600
N105        N  0.07171625  0.38362045  0.01342537    -0.63460
Mn106      Mn  0.00837846  0.43709154  0.91045578     1.10660
C107        C  0.09395957  0.37248772  0.97684077     0.99520
C108        C  0.91661926  0.36090931  0.95313954     0.99590
N109        N  0.95779536  0.51993229  0.06161573    -0.05710
N110        N  0.95775775  0.51109968  0.10407070    -0.61090
N111        N  0.03053743  0.46491063  0.07071065    -0.05030
N112        N  0.05044004  0.44021497  0.09683188    -0.57810
N113        N  0.04544153  0.50294987  0.07369484    -0.06340
N114        N  0.07739529  0.50544663  0.10145612    -0.60650
N115        N  0.93897107  0.48865607  0.04065235    -0.05330
N116        N  0.91538366  0.46796379  0.06793598    -0.57840
Mn117      Mn  0.01534713  0.54644833  0.03361208     1.20190
Mn118      Mn  0.98711357  0.44211293  0.02263323     1.10090
Cl119      Cl  0.00985307  0.49306908  0.97175354    -0.85810
C120        C  0.93282592  0.47688497  0.10708157     0.96520
C121        C  0.07911342  0.46552557  0.11592628     0.96320
C122        C  0.87257029  0.32499558  0.14137303    -0.02330
C123        C  0.16942637  0.33343205  0.83204592    -0.02330
C124        C  0.16678092  0.63072540  0.82269401    -0.02330
C125        C  0.84848588  0.32381761  0.80923846    -0.02330
C126        C  0.85327009  0.61819990  0.11706739    -0.02330
C127        C  0.74762906  0.49110547  0.70359840     0.00720
C128        C  0.77827052  0.48953280  0.73663142     0.00720
C129        C  0.17490834  0.63868075  0.14110080    -0.02330
C130        C  0.17706592  0.33035029  0.14788004    -0.02330
C131        C  0.28181887  0.97951566  0.74636110     0.00720
C132        C  0.24760076  0.97888144  0.71834814     0.00720
C133        C  0.52423176  0.75533224  0.20831038     0.00720
C134        C  0.52705965  0.71859543  0.23288375     0.00720
C135        C  0.51463846  0.25043672  0.71216619     0.00720
C136        C  0.51465787  0.21996365  0.74416876     0.00720
C137        C  0.67249887  0.14614114  0.81959258    -0.02330
N138        N  0.57705471  0.93318307  0.91980499    -0.05960
N139        N  0.58673966  0.93803185  0.87886763    -0.58080
N140        N  0.57007610  0.89568043  0.01928423    -0.05640
N141        N  0.59246323  0.92968190  0.02473304    -0.60210
N142        N  0.59090017  0.86909362  0.99467957    -0.05240
N143        N  0.63126017  0.88042486  0.99388175    -0.58060
N144        N  0.59615655  0.96121965  0.94479232    -0.04920
N145        N  0.62151349  0.98410303  0.92000021    -0.60560
C146        C  0.61455621  0.96924266  0.87830406     0.96210
C147        C  0.63196242  0.91792575  0.01524525     0.95990
N148        N  0.51135541  0.01632230  0.05038952    -0.06150
N149        N  0.50643571  0.04468301  0.08170386    -0.58660
N150        N  0.61004350  0.02691064  0.01128481    -0.04270
N151        N  0.64708928  0.04150346  0.99858657    -0.59910
N152        N  0.58171661  0.05457834  0.00364748    -0.06180
N153        N  0.59801138  0.08954192  0.99001350    -0.58930
N154        N  0.53647153  0.98629490  0.06377657    -0.03910
N155        N  0.54737518  0.99439867  0.10478484    -0.60000
Mn156      Mn  0.58684079  0.96344824  0.01809702     1.18440
C157        C  0.53369199  0.03386069  0.11324996     0.98300
C158        C  0.63877901  0.08140841  0.98538476     0.98960
N159        N  0.50416834  0.90997025  0.97508084    -0.06200
N160        N  0.49149793  0.89310247  0.01163455    -0.62510
N161        N  0.50854390  0.92050112  0.86622840    -0.05000
N162        N  0.47613073  0.94119689  0.88134700    -0.63180
N163        N  0.50608298  0.88112213  0.87962471    -0.05700
N164        N  0.46816266  0.87298268  0.89495814    -0.62770
N165        N  0.48594451  0.94633993  0.96885944    -0.04600
N166        N  0.45958908  0.95369058  0.00187500    -0.63460
Mn167      Mn  0.54827115  0.87585360  0.93627695     1.10660
C168        C  0.46641755  0.92171539  0.02886879     0.99520
C169        C  0.44993105  0.91078300  0.89589042     0.99590
N170        N  0.53495832  0.04880517  0.91850189    -0.05710
N171        N  0.54123941  0.08539744  0.89999999    -0.61090
N172        N  0.43658532  0.01483079  0.94379686    -0.05030
N173        N  0.39917973  0.00579188  0.96090784    -0.57810
N174        N  0.45704652  0.03887254  0.97203879    -0.06340
N175        N  0.43462624  0.04853756  0.00645843    -0.60650
N176        N  0.52360696  0.02016546  0.88920757    -0.05330
N177        N  0.52408145  0.03699280  0.85030698    -0.57840
Mn178      Mn  0.52085669  0.03845756  0.98506467     1.20190
Mn179      Mn  0.47440378  0.97201585  0.90183511     1.10090
Cl180      Cl  0.53294072  0.96131717  0.95918651    -0.85810
C181        C  0.52752849  0.07868436  0.85830668     0.96520
C182        C  0.39948256  0.02693740  0.00026395     0.96320
C183        C  0.67989532  0.84035044  0.13684972    -0.02330
C184        C  0.35115322  0.82753215  0.82037661    -0.02330
C185        C  0.36244377  0.13882561  0.82527862    -0.02330
C186        C  0.67948357  0.83661833  0.81630640    -0.02330
C187        C  0.36734815  0.83087967  0.13975588    -0.02330
C188        C  0.51204318  0.71858957  0.72033560     0.00720
C189        C  0.51319078  0.75371665  0.75052333     0.00720
C190        C  0.33715772  0.12189235  0.13112708    -0.02330
C191        C  0.67323451  0.13911797  0.13400967    -0.02330
C192        C  0.00522849  0.70222647  0.21208479     0.00720
C193        C  0.00723077  0.73825022  0.23889442     0.00720
C194        C  0.76430193  0.99369705  0.20797104     0.00720
C195        C  0.79691029  0.98638469  0.23723474     0.00720
C196        C  0.75432648  0.26025325  0.47593395     0.00720
C197        C  0.78470435  0.22878645  0.47442685     0.00720
C198        C  0.25803350  0.73585814  0.47314473     0.00720
C199        C  0.29532954  0.71285265  0.47302641     0.00720
C200        C  0.85707142  0.15240165  0.31674908    -0.02330
N201        N  0.97912339  0.07438316  0.45064574    -0.05960
N202        N  0.96233828  0.10236853  0.42589205    -0.58080
N203        N  0.06181775  0.07353709  0.51078032    -0.05640
N204        N  0.09292915  0.09817725  0.52501308    -0.60210
N205        N  0.06847281  0.06117893  0.47003234    -0.05240
N206        N  0.10419683  0.07497994  0.45613450    -0.58060
N207        N  0.97119326  0.08238528  0.49208886    -0.04920
N208        N  0.94830870  0.11627279  0.49713435    -0.60560
C209        C  0.94411877  0.12835824  0.45531331     0.96210
C210        C  0.11961409  0.09753825  0.49030383     0.95990
N211        N  0.03837127  0.97821619  0.59575737    -0.06150
N212        N  0.07511081  0.96608555  0.61093873    -0.58660
N213        N  0.94813039  0.02213459  0.56176989    -0.04270
N214        N  0.91135295  0.03147099  0.54582382    -0.59910
N215        N  0.94657609  0.98618768  0.58182409    -0.06180
N216        N  0.90758856  0.97350547  0.58503002    -0.58930
N217        N  0.03873938  0.01881634  0.58861143    -0.03910
N218        N  0.07485976  0.03507965  0.59809153    -0.60000
Mn219      Mn  0.00423706  0.05081840  0.54084173     1.18440
C220        C  0.09731434  0.00227931  0.61078618     0.98300
C221        C  0.88556593  0.00134038  0.56131417     0.98960
N222        N  0.06846890  0.98557702  0.40780260    -0.06200
N223        N  0.10119057  0.98911310  0.38180354    -0.62510
N224        N  0.97242524  0.95756383  0.39846982    -0.05000
N225        N  0.94695108  0.93911127  0.37102179    -0.63180
N226        N  0.97737977  0.99731549  0.38932805    -0.05700
N227        N  0.95466324  0.00747438  0.35449399    -0.62770
N228        N  0.06247027  0.94655033  0.41912439    -0.04600
N229        N  0.09192746  0.92273661  0.40391532    -0.63460
Mn230      Mn  0.02365822  0.03085905  0.42808369     1.10660
C231        C  0.11569629  0.94942266  0.38082198     0.99520
C232        C  0.93617914  0.97010876  0.34402387     0.99590
N233        N  0.94537349  0.91550145  0.51914350    -0.05710
N234        N  0.90626755  0.91682140  0.52978289    -0.61090
N235        N  0.04093368  0.89211986  0.49393213    -0.05030
N236        N  0.08054780  0.88655435  0.48462262    -0.57810
N237        N  0.03621233  0.89881993  0.53640047    -0.06340
N238        N  0.07238003  0.89731156  0.55636113    -0.60650
N239        N  0.94836741  0.90978052  0.47678321    -0.05330
N240        N  0.91071653  0.90668216  0.45875212    -0.57840
Mn241      Mn  0.99201029  0.94241654  0.56053642     1.20190
Mn242      Mn  0.00562490  0.92444009  0.44634937     1.10090
Cl243      Cl  0.00770140  0.98726789  0.49405669    -0.85810
C244        C  0.88439950  0.90923838  0.49304359     0.96520
C245        C  0.09958773  0.89162796  0.52341482     0.96320
C246        C  0.85667795  0.83208533  0.30744145    -0.02330
C247        C  0.17303314  0.80807761  0.30901589    -0.02330
C248        C  0.18502918  0.81461478  0.63105347    -0.02330
C249        C  0.85410093  0.13744328  0.63173191    -0.02330
C250        C  0.85523546  0.83053531  0.62991655    -0.02330
C251        C  0.74999268  0.71568874  0.46800509     0.00720
C252        C  0.78321988  0.74496898  0.46915388     0.00720
C253        C  0.17462364  0.13158346  0.33785766    -0.02330
C254        C  0.17474658  0.13637996  0.64436706    -0.02330
C255        C  0.01165572  0.71714147  0.73881201     0.00720
C256        C  0.01560521  0.74696744  0.70415550     0.00720
C257        C  0.78474181  0.98793713  0.71742061     0.00720
C258        C  0.75185696  0.98758746  0.74739526     0.00720
C259        C  0.77220090  0.71451289  0.98089486     0.00720
C260        C  0.75353250  0.75402325  0.97957103     0.00720
C261        C  0.89806301  0.81053541  0.65080648     0.00000
C262        C  0.89899183  0.76870350  0.66610436    -0.11870
C263        C  0.93776097  0.74707539  0.67057963     0.02240
C264        C  0.97505999  0.76857201  0.68449458    -0.00090
C265        C  0.97430054  0.81187555  0.67491250    -0.11810
C266        C  0.93881209  0.83127626  0.65436340     0.02120
H267        H  0.87027443  0.75023193  0.66554842     0.15100
H268        H  0.00283480  0.83015514  0.68012639     0.15100
C269        C  0.94776737  0.87115497  0.63469040     0.36750
C270        C  0.94189893  0.71194908  0.64041358     0.36660
N271        N  0.95646003  0.90340714  0.62015705    -0.43590
N272        N  0.94429557  0.68512613  0.61431394    -0.43590
C273        C  0.83740607  0.86410220  0.66609310     0.00000
C274        C  0.86310241  0.89746007  0.68384054    -0.11870
C275        C  0.84704821  0.93593087  0.70160057     0.02240
C276        C  0.80385043  0.94558266  0.69872394    -0.00090
C277        C  0.77840301  0.91092235  0.68382635    -0.11810
C278        C  0.79469942  0.86960598  0.67606298     0.02120
H279        H  0.89611009  0.89343979  0.68686966     0.15100
H280        H  0.74536370  0.91518588  0.67913805     0.15100
C281        C  0.76879291  0.83320352  0.68502202     0.36750
C282        C  0.87577923  0.96363243  0.72490987     0.36660
N283        N  0.74828433  0.80389642  0.69237260    -0.43590
N284        N  0.89926341  0.98461698  0.74463290    -0.43590
C285        C  0.82347943  0.79661612  0.60348299     0.00000
C286        C  0.84269269  0.76098652  0.58170496    -0.11870
C287        C  0.83274004  0.74690195  0.53787929     0.02240
C288        C  0.79772714  0.76225435  0.51486424    -0.00090
C289        C  0.77304803  0.79094173  0.53823298    -0.11810
C290        C  0.78481628  0.80836501  0.58020055     0.02120
H291        H  0.87134993  0.74821472  0.59394203     0.15100
H292        H  0.74460525  0.80153827  0.52212400     0.15100
C293        C  0.75672662  0.84156319  0.59312098     0.36750
C294        C  0.85964487  0.71640234  0.51676907     0.36660
N295        N  0.73254418  0.86772261  0.60043384    -0.43590
N296        N  0.88118550  0.69195764  0.49985395    -0.43590
C297        C  0.79770606  0.03142438  0.69980409     0.00000
C298        C  0.82595478  0.05885655  0.72255772    -0.11870
C299        C  0.83525056  0.10064068  0.70803446     0.02240
C300        C  0.82172218  0.11492118  0.66589016    -0.00090
C301        C  0.78880849  0.08843221  0.64720935    -0.11810
C302        C  0.77650901  0.04882602  0.66380406     0.02120
H303        H  0.84123586  0.04763541  0.75203104     0.15100
H304        H  0.77855076  0.09325593  0.61378301     0.15100
C305        C  0.74781951  0.02305761  0.63780233     0.36750
C306        C  0.86354187  0.12544346  0.73466427     0.36660
N307        N  0.72556204  0.00214206  0.61644169    -0.43590
N308        N  0.88630810  0.14491441  0.75667068    -0.43590
C309        C  0.14204582  0.79486260  0.65212486     0.00000
C310        C  0.10512201  0.78879164  0.62562850    -0.11870
C311        C  0.06699810  0.77058349  0.64117922     0.02240
C312        C  0.06010857  0.76214970  0.68647784    -0.00090
C313        C  0.09715382  0.76684933  0.71308275    -0.11810
C314        C  0.13756134  0.77846149  0.69538059     0.02120
H315        H  0.10671617  0.79468940  0.59062787     0.15100
H316        H  0.09561000  0.75981204  0.74777203     0.15100
C317        C  0.17459098  0.76866784  0.72038541     0.36750
C318        C  0.03876836  0.75393918  0.60804688     0.36660
N319        N  0.20465945  0.75917749  0.73911156    -0.43590
N320        N  0.01857329  0.73863457  0.58031672    -0.43590
C321        C  0.83426292  0.80955400  0.34854241     0.00000
C322        C  0.81870622  0.76740229  0.34611200    -0.11870
C323        C  0.81071222  0.74404393  0.38558588     0.02240
C324        C  0.80155141  0.76527780  0.42626750    -0.00090
C325        C  0.81505878  0.80736106  0.42722864    -0.11810
C326        C  0.83949337  0.82416974  0.39251639     0.02120
H327        H  0.82192416  0.75036259  0.31512224     0.15100
H328        H  0.81057096  0.82517199  0.45693602     0.15100
C329        C  0.88093629  0.83915977  0.40311983     0.36750
C330        C  0.83089690  0.70379072  0.38787438     0.36660
N331        N  0.91667819  0.84567837  0.40569130    -0.43590
N332        N  0.84926587  0.67261303  0.39013186    -0.43590
C333        C  0.14048979  0.00945769  0.62231857     0.00000
C334        C  0.13678939  0.02917599  0.66308006    -0.11870
C335        C  0.12935012  0.07239405  0.66247821     0.02240
C336        C  0.14908611  0.09720790  0.62880843    -0.00090
C337        C  0.16125881  0.07590113  0.58988759    -0.11810
C338        C  0.16072930  0.03183946  0.58827329     0.02120
H339        H  0.12467242  0.01098720  0.69041730     0.15100
H340        H  0.17657767  0.09262573  0.56361212     0.15100
C341        C  0.17423355  0.01112678  0.54825948     0.36750
C342        C  0.10283159  0.08932530  0.69682547     0.36660
N343        N  0.18533635  0.99504182  0.51593362    -0.43590
N344        N  0.08068977  0.10170011  0.72414370    -0.43590
C345        C  0.15256862  0.12787027  0.48049389     0.00000
C346        C  0.18612628  0.10649089  0.46151558    -0.11870
C347        C  0.18217789  0.09545127  0.41644051     0.02240
C348        C  0.15991468  0.12244651  0.38693125    -0.00090
C349        C  0.13601544  0.15451731  0.40890097    -0.11810
C350        C  0.13529494  0.15943044  0.45496729     0.02120
H351        H  0.20256804  0.08488084  0.48283585     0.15100
H352        H  0.11772345  0.17681777  0.39143012     0.15100
C353        C  0.10694675  0.18931616  0.47482492     0.36750
C354        C  0.18249427  0.05042061  0.40967906     0.36660
N355        N  0.08409060  0.21301392  0.49094583    -0.43590
N356        N  0.18429389  0.01420470  0.40638997    -0.43590
C357        C  0.86485596  0.85606577  0.58819762     0.00000
C358        C  0.83522910  0.88786682  0.57656070    -0.11870
C359        C  0.82412559  0.89455980  0.53244626     0.02240
C360        C  0.85084475  0.87929870  0.49988133    -0.00090
C361        C  0.87080575  0.84122872  0.50932370    -0.11810
C362        C  0.88542820  0.83535611  0.55217244     0.02120
H363        H  0.81722923  0.90470405  0.60095372     0.15100
H364        H  0.88676827  0.82416801  0.48352006     0.15100
C365        C  0.92020915  0.80718179  0.55694193     0.36750
C366        C  0.79155190  0.92378831  0.52160973     0.36660
N367        N  0.94803356  0.78429040  0.55906969    -0.43590
N368        N  0.76477145  0.94668053  0.51316757    -0.43590
C369        C  0.86545583  0.09670065  0.60511733     0.00000
C370        C  0.84397515  0.08866119  0.56384996    -0.11870
C371        C  0.82960176  0.04805850  0.55252378     0.02240
C372        C  0.84487308  0.01460802  0.57676272    -0.00090
C373        C  0.85317506  0.02299897  0.62087735    -0.11810
C374        C  0.87603982  0.05984628  0.62987927     0.02120
H375        H  0.83470314  0.11320923  0.54181483     0.15100
H376        H  0.85705129  0.99655871  0.64250197     0.15100
C377        C  0.90570510  0.05841882  0.66604910     0.36750
C378        C  0.80834661  0.04002170  0.51132795     0.36660
N379        N  0.92993037  0.05649670  0.69449866    -0.43590
N380        N  0.79098589  0.03294939  0.47846466    -0.43590
C381        C  0.14461351  0.89611787  0.52908071     0.00000
C382        C  0.15401121  0.91222541  0.57033205    -0.11870
C383        C  0.15288322  0.88272145  0.60314924     0.02240
C384        C  0.16934984  0.84229409  0.59333107    -0.00090
C385        C  0.17483819  0.83179688  0.54782779    -0.11810
C386        C  0.16518238  0.86042982  0.51544570     0.02120
H387        H  0.14209475  0.94250749  0.57774493     0.15100
H388        H  0.18170926  0.80084940  0.53645322     0.15100
C389        C  0.15737111  0.84617146  0.47146430     0.36750
C390        C  0.12735589  0.89143811  0.64149322     0.36660
N391        N  0.14372251  0.83832442  0.43716255    -0.43590
N392        N  0.10583241  0.89816089  0.67138507    -0.43590
C393        C  0.15432680  0.84444075  0.33710263     0.00000
C394        C  0.11595008  0.86157867  0.32297212    -0.11870
C395        C  0.11234072  0.90508302  0.31987798     0.02240
C396        C  0.13885811  0.93109726  0.34567582    -0.00090
C397        C  0.17599102  0.91524521  0.36191634    -0.11810
C398        C  0.18261575  0.87220209  0.36128816     0.02120
H399        H  0.09212542  0.84236636  0.30689750     0.15100
H400        H  0.19641818  0.93546690  0.38179539     0.15100
C401        C  0.21994784  0.85885376  0.38434264     0.36750
C402        C  0.07574318  0.92234168  0.29900050     0.36660
N403        N  0.24982333  0.85003565  0.40385268    -0.43590
N404        N  0.04659187  0.93683702  0.28258977    -0.43590
C405        C  0.87938388  0.87530372  0.31950682     0.00000
C406        C  0.91426143  0.88648974  0.29257191    -0.11870
C407        C  0.92312784  0.92848812  0.28274328     0.02240
C408        C  0.90677909  0.96029699  0.30948720    -0.00090
C409        C  0.86875781  0.95212255  0.32985540    -0.11810
C410        C  0.85743369  0.91058539  0.33975283     0.02120
H411        H  0.93130344  0.86320208  0.27380798     0.15100
H412        H  0.85320888  0.97801603  0.34674358     0.15100
C413        C  0.82233858  0.90758770  0.36969042     0.36750
C414        C  0.95386308  0.93837696  0.24973696     0.36660
N415        N  0.79435542  0.90711639  0.39392727    -0.43590
N416        N  0.97759343  0.94642715  0.22228766    -0.43590
C417        C  0.88423428  0.14102804  0.35688874     0.00000
C418        C  0.92354839  0.16150408  0.36209011    -0.11870
C419        C  0.93567849  0.17795111  0.40299777     0.02240
C420        C  0.91728736  0.16028725  0.44009554    -0.00090
C421        C  0.87747427  0.14244581  0.43699855    -0.11810
C422        C  0.86362833  0.12733971  0.39617390     0.02120
H423        H  0.94331105  0.16837322  0.33459279     0.15100
H424        H  0.86237065  0.13125004  0.46670044     0.15100
C425        C  0.82722780  0.10007152  0.39633098     0.36750
C426        C  0.97551964  0.19994090  0.40696005     0.36660
N427        N  0.79824485  0.07795567  0.39771028    -0.43590
N428        N  0.00765254  0.21694402  0.41034973    -0.43590
C429        C  0.19344641  0.77898899  0.34670576     0.00000
C430        C  0.17136419  0.77079413  0.38664273    -0.11870
C431        C  0.19023292  0.75458631  0.42564915     0.02240
C432        C  0.23439744  0.74878462  0.42880222    -0.00090
C433        C  0.25470950  0.75346442  0.38686590    -0.11810
C434        C  0.23343938  0.76144788  0.34636688     0.02120
H435        H  0.13821989  0.77786240  0.38777326     0.15100
H436        H  0.28759124  0.75302576  0.38375838     0.15100
C437        C  0.25068027  0.74562717  0.30547368     0.36750
C438        C  0.16201971  0.74391257  0.46081980     0.36660
N439        N  0.26451554  0.73244376  0.27292258    -0.43590
N440        N  0.13748161  0.73576704  0.48747463    -0.43590
C441        C  0.24261573  0.74985753  0.51976806     0.00000
C442        C  0.21354272  0.72621164  0.54479012    -0.11870
C443        C  0.19795961  0.74125296  0.58655172     0.02240
C444        C  0.21438779  0.77898985  0.60758096    -0.00090
C445        C  0.25303828  0.79177213  0.58857059    -0.11810
C446        C  0.26316320  0.78264456  0.54363855     0.02120
H447        H  0.20103489  0.69717598  0.53063852     0.15100
H448        H  0.27389473  0.81194655  0.60731852     0.15100
C449        C  0.29182113  0.81019363  0.52111564     0.36750
C450        C  0.16595369  0.71616177  0.60691294     0.36660
N451        N  0.31361344  0.83312842  0.50248042    -0.43590
N452        N  0.14060671  0.69503592  0.62274487    -0.43590
C453        C  0.79986571  0.21383931  0.42909230     0.00000
C454        C  0.83468169  0.23377336  0.41144814    -0.11870
C455        C  0.85100669  0.22288649  0.36986546     0.02240
C456        C  0.83117208  0.19029685  0.34174976    -0.00090
C457        C  0.78939419  0.18390226  0.35443565    -0.11810
C458        C  0.77570654  0.18929631  0.39882685     0.02120
H459        H  0.84904437  0.25921459  0.43025581     0.15100
H460        H  0.76653821  0.18227600  0.32851303     0.15100
C461        C  0.73676051  0.17002676  0.41209176     0.36750
C462        C  0.88860285  0.24692690  0.36093941     0.36660
N463        N  0.70575144  0.15402149  0.42281616    -0.43590
N464        N  0.91811061  0.26805383  0.35700472    -0.43590
C465        C  0.80304714  0.20798175  0.51567513     0.00000
C466        C  0.77558237  0.19001973  0.54643962    -0.11870
C467        C  0.78944910  0.17489055  0.58777523     0.02240
C468        C  0.83334816  0.16933367  0.59716458    -0.00090
C469        C  0.86070832  0.18721035  0.56550295    -0.11810
C470        C  0.84648103  0.20751480  0.52704891     0.02120
H471        H  0.74217173  0.19065710  0.53937759     0.15100
H472        H  0.89430226  0.18457614  0.57025834     0.15100
C473        C  0.87781370  0.23104777  0.50356939     0.36750
C474        C  0.75638007  0.16529925  0.61803540     0.36660
N475        N  0.90458564  0.24995816  0.48713661    -0.43590
N476        N  0.72894937  0.15410716  0.63992113    -0.43590
C477        C  0.80748026  0.93996372  0.24854925     0.00000
C478        C  0.78122778  0.91642634  0.27692436    -0.11870
C479        C  0.78812597  0.87284994  0.28586181     0.02240
C480        C  0.82537477  0.85212272  0.27150023    -0.00090
C481        C  0.84382691  0.87268212  0.23433164    -0.11810
C482        C  0.83682081  0.91564176  0.22452891     0.02120
H483        H  0.75531741  0.93226210  0.29288502     0.15100
H484        H  0.87105388  0.85990166  0.21845638     0.15100
C485        C  0.86221938  0.93358264  0.19029564     0.36750
C486        C  0.75909842  0.85186990  0.31452665     0.36660
N487        N  0.88321410  0.94569335  0.16206467    -0.43590
N488        N  0.73606924  0.83530424  0.33812500    -0.43590
C489        C  0.81375081  0.02358412  0.26466908     0.00000
C490        C  0.78506364  0.04823626  0.28763208    -0.11870
C491        C  0.79359130  0.09055787  0.30022559     0.02240
C492        C  0.83638041  0.10706687  0.30149106    -0.00090
C493        C  0.86591540  0.07495014  0.29072102    -0.11810
C494        C  0.85527071  0.03883924  0.26519440     0.02120
H495        H  0.75400209  0.03510173  0.29219016     0.15100
H496        H  0.89894982  0.08025283  0.29746593     0.15100
C497        C  0.88653269  0.02403948  0.23493646     0.36750
C498        C  0.75552113  0.11017020  0.31389778     0.36660
N499        N  0.91295098  0.01620965  0.21022951    -0.43590
N500        N  0.72228503  0.12058729  0.32445383    -0.43590
C501        C  0.05031092  0.75401372  0.25646348     0.00000
C502        C  0.07440586  0.78238493  0.23183259    -0.11870
C503        C  0.11748997  0.79046696  0.24128160     0.02240
C504        C  0.13552713  0.78116771  0.28364972    -0.00090
C505        C  0.11170539  0.74976799  0.30621764    -0.11810
C506        C  0.07106138  0.73565980  0.29257599     0.02120
H507        H  0.06089902  0.79462021  0.20182925     0.15100
H508        H  0.12490552  0.73365685  0.33376414     0.15100
C509        C  0.05142765  0.70168149  0.31613818     0.36750
C510        C  0.14227000  0.80138217  0.20333222     0.36660
N511        N  0.03564021  0.67438961  0.33493113    -0.43590
N512        N  0.16007441  0.81200789  0.17217531    -0.43590
C513        C  0.96783673  0.76145441  0.25403794     0.00000
C514        C  0.96128346  0.76600348  0.29920141    -0.11870
C515        C  0.92342192  0.78117536  0.31676582     0.02240
C516        C  0.89122430  0.79896832  0.28930527    -0.00090
C517        C  0.89627357  0.78960213  0.24372107    -0.11810
C518        C  0.93472147  0.77451450  0.22600242     0.02120
H519        H  0.98461512  0.75358367  0.32147845     0.15100
H520        H  0.87056261  0.79447195  0.22114845     0.15100
C521        C  0.94025173  0.77549654  0.17887698     0.36750
C522        C  0.91655051  0.76656233  0.36084073     0.36660
N523        N  0.94487188  0.77687677  0.14110653    -0.43590
N524        N  0.91371346  0.75262791  0.39579128    -0.43590
C525        C  0.70420284  0.11436710  0.16757107     0.00000
C526        C  0.68661150  0.08808940  0.20051404    -0.11870
C527        C  0.70627115  0.05171931  0.21665070     0.02240
C528        C  0.74560786  0.03811086  0.19972597    -0.00090
C529        C  0.76712339  0.06826525  0.17409498    -0.11810
C530        C  0.74783585  0.10656893  0.16027094     0.02120
H531        H  0.65387093  0.09095289  0.20875118     0.15100
H532        H  0.79925037  0.06193959  0.16468486     0.15100
C533        C  0.77491048  0.13882866  0.14323982     0.36750
C534        C  0.68368840  0.03001470  0.25064594     0.36660
N535        N  0.79724615  0.16507121  0.13117814    -0.43590
N536        N  0.66458332  0.01487293  0.27876388    -0.43590
C537        C  0.70807749  0.85751339  0.77798470     0.00000
C538        C  0.74873825  0.87249774  0.79015316    -0.11870
C539        C  0.76129821  0.91560221  0.78627695     0.02240
C540        C  0.73585867  0.94475598  0.76340322    -0.00090
C541        C  0.70079014  0.92734749  0.74237127    -0.11810
C542        C  0.69005289  0.88432518  0.74485739     0.02120
H543        H  0.77095544  0.85049108  0.80335687     0.15100
H544        H  0.68471172  0.94587237  0.71847011     0.15100
C545        C  0.66018492  0.87144065  0.71164564     0.36750
C546        C  0.80096250  0.92878364  0.80513811     0.36660
N547        N  0.63705001  0.86496043  0.68282872    -0.43590
N548        N  0.83274675  0.93925107  0.82050393    -0.43590
C549        C  0.70595681  0.81008840  0.85336902     0.00000
C550        C  0.74107930  0.82712413  0.87775395    -0.11870
C551        C  0.75688489  0.80969387  0.91751352     0.02240
C552        C  0.73948112  0.77266082  0.93495212    -0.00090
C553        C  0.70924645  0.75201304  0.90828496    -0.11810
C554        C  0.69508103  0.76854050  0.86749703     0.02120
H555        H  0.75408980  0.85745587  0.86999481     0.15100
H556        H  0.69717365  0.72187278  0.91883117     0.15100
C557        C  0.67457039  0.73895292  0.83861960     0.36750
C558        C  0.79022708  0.83170602  0.94082668     0.36660
N559        N  0.65937158  0.71443975  0.81503094    -0.43590
N560        N  0.81700632  0.84946040  0.95932302    -0.43590
C561        C  0.63817543  0.81012188  0.79943797     0.00000
C562        C  0.63124167  0.79678042  0.75518415    -0.11870
C563        C  0.59031125  0.78612702  0.73811343     0.02240
C564        C  0.55584150  0.77618942  0.76626958    -0.00090
C565        C  0.56357042  0.78714715  0.81117500    -0.11810
C566        C  0.60263154  0.80354929  0.82741216     0.02120
H567        H  0.65746068  0.79689991  0.73276249     0.15100
H568        H  0.53901438  0.78424432  0.83484565     0.15100
C569        C  0.60532782  0.81279899  0.87405944     0.36750
C570        C  0.58344244  0.79097820  0.69145266     0.36660
N571        N  0.60773685  0.81970902  0.91152538    -0.43590
N572        N  0.57800058  0.79613116  0.65415492    -0.43590
C573        C  0.39040540  0.80235106  0.79984261     0.00000
C574        C  0.42162429  0.78611805  0.82856736    -0.11870
C575        C  0.45875143  0.76685414  0.81304645     0.02240
C576        C  0.47193793  0.77184252  0.76876774    -0.00090
C577        C  0.44162776  0.78849810  0.73980509    -0.11810
C578        C  0.39994798  0.79710086  0.75395764     0.02120
H579        H  0.41592728  0.78590818  0.86370481     0.15100
H580        H  0.44855432  0.78857290  0.70482978     0.15100
C581        C  0.36754260  0.79529061  0.72043058     0.36750
C582        C  0.47901445  0.73735216  0.84176368     0.36660
N583        N  0.34197228  0.79422898  0.69317890    -0.43590
N584        N  0.49498560  0.71355205  0.86482753    -0.43590
C585        C  0.69951178  0.80753579  0.10163455     0.00000
C586        C  0.74286790  0.79838547  0.09913787    -0.11870
C587        C  0.76199660  0.78893412  0.05769626     0.02240
C588        C  0.73719988  0.77542046  0.02092126    -0.00090
C589        C  0.69411282  0.77926174  0.02437048    -0.11810
C590        C  0.67551643  0.79664956  0.06186535     0.02120
H591        H  0.76244894  0.80175032  0.12816017     0.15100
H592        H  0.67448464  0.76946115  0.99664156     0.15100
C593        C  0.63086384  0.80293298  0.05701374     0.36750
C594        C  0.80692174  0.79252052  0.05388067     0.36660
N595        N  0.59476579  0.80429998  0.05343513    -0.43590
N596        N  0.84286335  0.79651063  0.05050869    -0.43590
C597        C  0.74245305  0.95479397  0.18954734     0.00000
C598        C  0.71023513  0.93813500  0.21385048    -0.11870
C599        C  0.68974059  0.90059161  0.20227607     0.02240
C600        C  0.70759245  0.87024343  0.17042494    -0.00090
C601        C  0.74767660  0.88492483  0.15488026    -0.11810
C602        C  0.76043836  0.92778104  0.15813937     0.02120
H603        H  0.70066622  0.95503818  0.24296758     0.15100
H604        H  0.76579932  0.86689088  0.13213492     0.15100
C605        C  0.78959773  0.94421395  0.12637702     0.36750
C606        C  0.64978095  0.90124131  0.22443858     0.36660
N607        N  0.81201448  0.95755357  0.10001210    -0.43590
N608        N  0.61946791  0.90491350  0.24509918    -0.43590
C609        C  0.56844453  0.06449082  0.12094128     0.00000
C610        C  0.60522294  0.04718548  0.13845357    -0.11870
C611        C  0.64383335  0.06266304  0.12527412     0.02240
C612        C  0.64676058  0.10406149  0.10986238    -0.00090
C613        C  0.61292224  0.11624005  0.08411997    -0.11810
C614        C  0.57299108  0.10050982  0.09342111     0.02120
H615        H  0.60421602  0.01707788  0.15490462     0.15100
H616        H  0.61636472  0.14275019  0.06252157     0.15100
C617        C  0.53858396  0.12191316  0.07264027     0.36750
C618        C  0.67809115  0.03373853  0.12100767     0.36660
N619        N  0.51223203  0.13976680  0.05474596    -0.43590
N620        N  0.70510408  0.00995972  0.11692515    -0.43590
C621        C  0.36938156  0.02532350  0.03603026     0.00000
C622        C  0.33243723  0.04593586  0.02748830    -0.11870
C623        C  0.31800561  0.07547832  0.05807983     0.02240
C624        C  0.34111533  0.08308704  0.09877787    -0.00090
C625        C  0.36345098  0.04841555  0.11225468    -0.11810
C626        C  0.38312064  0.02400503  0.08083903     0.02120
H627        H  0.31816590  0.04348727  0.99502238     0.15100
H628        H  0.37002723  0.04338324  0.14668846     0.15100
C629        C  0.42051257  0.00496320  0.09728171     0.36750
C630        C  0.27754593  0.09185544  0.04701074     0.36660
N631        N  0.44809483  0.99069503  0.11674811    -0.43590
N632        N  0.24436898  0.10121025  0.03536746    -0.43590
C633        C  0.39398583  0.86630885  0.12071624     0.00000
C634        C  0.43766710  0.86668979  0.12718893    -0.11870
C635        C  0.46320554  0.88866492  0.10011889     0.02240
C636        C  0.44473424  0.91377961  0.06813640    -0.00090
C637        C  0.40211527  0.92153744  0.06792855    -0.11810
C638        C  0.37619167  0.89967602  0.09555647     0.02120
H639        H  0.45339497  0.84723255  0.15046673     0.15100
H640        H  0.38868125  0.94131208  0.04283117     0.15100
C641        C  0.33197314  0.90688640  0.08870922     0.36750
C642        C  0.50626608  0.87529968  0.09924582     0.36660
N643        N  0.29728020  0.91387980  0.08035454    -0.43590
N644        N  0.53912766  0.86036942  0.09830063    -0.43590
C645        C  0.64630000  0.96476062  0.84362271     0.00000
C646        C  0.68284058  0.94901369  0.86179922    -0.11870
C647        C  0.68443342  0.90522137  0.86612929     0.02240
C648        C  0.66144399  0.87833365  0.83630264    -0.00090
C649        C  0.63139715  0.89862862  0.80921720    -0.11810
C650        C  0.62964711  0.94223367  0.80707485     0.02120
H651        H  0.69887403  0.96852882  0.88641403     0.15100
H652        H  0.61254527  0.88114869  0.78539040     0.15100
C653        C  0.59735546  0.95909685  0.77897838     0.36750
C654        C  0.69368968  0.89214324  0.91012629     0.36660
N655        N  0.57106200  0.97163958  0.75638386    -0.43590
N656        N  0.70224596  0.88189447  0.94536796    -0.43590
C657        C  0.48698797  0.09869527  0.84819611     0.00000
C658        C  0.46407479  0.11630918  0.88403903    -0.11870
C659        C  0.42038632  0.11959443  0.88278280     0.02240
C660        C  0.39922041  0.11195590  0.84265853    -0.00090
C661        C  0.42160503  0.08995340  0.80908741    -0.11810
C662        C  0.46422325  0.08419853  0.81094500     0.02120
H663        H  0.47960765  0.12480341  0.91480354     0.15100
H664        H  0.40697023  0.08140851  0.77805068     0.15100
C665        C  0.48221697  0.05830240  0.77626249     0.36750
C666        C  0.39894126  0.13233796  0.92223667     0.36660
N667        N  0.49568131  0.03607769  0.74936783    -0.43590
N668        N  0.38189161  0.14115698  0.95453687    -0.43590
C669        C  0.40625866  0.92061386  0.90625773     0.00000
C670        C  0.38843270  0.93403631  0.86702714    -0.11870
C671        C  0.38518033  0.90130340  0.83589264     0.02240
C672        C  0.37225464  0.86092384  0.85135246    -0.00090
C673        C  0.37508142  0.85456362  0.89819750    -0.11810
C674        C  0.38523484  0.88811555  0.92594646     0.02120
H675        H  0.39839603  0.96469721  0.85533609     0.15100
H676        H  0.36635608  0.82571858  0.91415124     0.15100
C677        C  0.35723417  0.89783348  0.96143763     0.36750
C678        C  0.41703893  0.90346756  0.80191570     0.36660
N679        N  0.33295793  0.90655451  0.98815854    -0.43590
N680        N  0.44344463  0.90537001  0.77589136    -0.43590
C681        C  0.66467422  0.93896053  0.04214874     0.00000
C682        C  0.64753029  0.94611798  0.08448725    -0.11870
C683        C  0.64322776  0.91051359  0.11110057     0.02240
C684        C  0.67149813  0.87683967  0.10384131    -0.00090
C685        C  0.70454143  0.88605122  0.07184947    -0.11810
C686        C  0.70180955  0.91872675  0.04288410     0.02120
H687        H  0.62528847  0.97135805  0.08860502     0.15100
H688        H  0.73345848  0.86930159  0.06926287     0.15100
C689        C  0.73714357  0.93352667  0.01790436     0.36750
C690        C  0.60786183  0.90893120  0.14026156     0.36660
N691        N  0.76559479  0.94573520  0.99809698    -0.43590
N692        N  0.57852666  0.90969727  0.16262318    -0.43590
C693        C  0.69612578  0.11206510  0.78775914     0.00000
C694        C  0.67475008  0.08392641  0.75815177    -0.11870
C695        C  0.69155575  0.04443034  0.74426588     0.02240
C696        C  0.73052261  0.02988794  0.76134176    -0.00090
C697        C  0.75406722  0.06131257  0.78429439    -0.11810
C698        C  0.73944964  0.10334690  0.78950054     0.02120
H699        H  0.64501040  0.09223940  0.74425317     0.15100
H700        H  0.78536040  0.05414209  0.79545291     0.15100
C701        C  0.76949090  0.13753125  0.79056302     0.36750
C702        C  0.66870766  0.02210966  0.71008046     0.36660
N703        N  0.79267759  0.16572684  0.79080180    -0.43590
N704        N  0.64935691  0.00605120  0.68204571    -0.43590
C705        C  0.64939203  0.12433230  0.85757644     0.00000
C706        C  0.63075415  0.14892231  0.89098350    -0.11870
C707        C  0.64019377  0.14011965  0.93463753     0.02240
C708        C  0.65590734  0.09990050  0.94542952    -0.00090
C709        C  0.66434198  0.07140186  0.91067951    -0.11810
C710        C  0.65664253  0.08276968  0.86708042     0.02120
H711        H  0.61672913  0.17883673  0.88324833     0.15100
H712        H  0.67216105  0.03929851  0.91760745     0.15100
C713        C  0.63393570  0.05517315  0.83846002     0.36750
C714        C  0.62968914  0.17120478  0.96804833     0.36660
N715        N  0.61181474  0.03875312  0.81326795    -0.43590
N716        N  0.62108250  0.19641074  0.99432248    -0.43590
C717        C  0.47272755  0.20286278  0.76331154     0.00000
C718        C  0.43845420  0.18777891  0.73680482    -0.11870
C719        C  0.39829677  0.17713480  0.75483035     0.02240
C720        C  0.39337800  0.17208782  0.80054588    -0.00090
C721        C  0.42618775  0.19239271  0.82614526    -0.11810
C722        C  0.46471840  0.20619672  0.80872458     0.02120
H723        H  0.44219824  0.18569328  0.70163821     0.15100
H724        H  0.42276952  0.19530369  0.86149242     0.15100
C725        C  0.49585565  0.22330321  0.83892299     0.36750
C726        C  0.36149253  0.18852599  0.73031400     0.36660
N727        N  0.52084473  0.23681961  0.86318711    -0.43590
N728        N  0.33122350  0.19912886  0.71263129    -0.43590
C729        C  0.55628357  0.20295657  0.76194015     0.00000
C730        C  0.59160273  0.22860891  0.77348858    -0.11870
C731        C  0.63167223  0.21072738  0.78170112     0.02240
C732        C  0.63478999  0.16767486  0.79329688    -0.00090
C733        C  0.59829729  0.14309394  0.78264239    -0.11810
C734        C  0.56265423  0.15960757  0.76221681     0.02120
H735        H  0.58921341  0.26249337  0.77191861     0.15100
H736        H  0.59717123  0.11012703  0.78898545     0.15100
C737        C  0.53716726  0.13269206  0.73414446     0.36750
C738        C  0.66866319  0.23653282  0.77522157     0.36660
N739        N  0.51763126  0.11358638  0.70845889    -0.43590
N740        N  0.69840740  0.25712437  0.77045503    -0.43590
C741        C  0.48102246  0.77104975  0.19318216     0.00000
C742        C  0.46408319  0.75559091  0.15352659    -0.11870
C743        C  0.42489350  0.76918059  0.13703965     0.02240
C744        C  0.39801860  0.79699460  0.16236016    -0.00090
C745        C  0.41218284  0.80418017  0.20629531    -0.11810
C746        C  0.45466038  0.79721793  0.21886694     0.02120
H747        H  0.48287670  0.73417620  0.13385398     0.15100
H748        H  0.39226729  0.82069924  0.22923693     0.15100
C749        C  0.47208568  0.82267429  0.25422195     0.36750
C750        C  0.41595165  0.75403405  0.09302013     0.36660
N751        N  0.48601015  0.84441144  0.28164580    -0.43590
N752        N  0.41143319  0.74016840  0.05778897    -0.43590
C753        C  0.56283695  0.77624102  0.18927744     0.00000
C754        C  0.58233762  0.81015179  0.21185248    -0.11870
C755        C  0.62447746  0.82118576  0.20189831     0.02240
C756        C  0.64051055  0.81470927  0.15898782    -0.00090
C757        C  0.62521822  0.77463022  0.14295231    -0.11810
C758        C  0.58632708  0.75693388  0.15561397     0.02120
H759        H  0.56937862  0.81982615  0.24336223     0.15100
H760        H  0.64328158  0.75532584  0.12102610     0.15100
C761        C  0.57261761  0.71768768  0.13540364     0.36750
C762        C  0.65321046  0.81709754  0.23861191     0.36660
N763        N  0.56168602  0.68612388  0.11944577    -0.43590
N764        N  0.67514428  0.81479004  0.26891105    -0.43590
C765        C  0.23241053  0.93566055  0.69869901     0.00000
C766        C  0.25581591  0.91641099  0.66546096    -0.11870
C767        C  0.24155014  0.87986859  0.64260207     0.02240
C768        C  0.21033716  0.85093933  0.66082448    -0.00090
C769        C  0.19282374  0.86746895  0.70100201    -0.11810
C770        C  0.20027172  0.90994354  0.71667051     0.02120
H771        H  0.28306071  0.93313950  0.65335627     0.15100
H772        H  0.16756457  0.85080693  0.71664120     0.15100
C773        C  0.17357539  0.92684639  0.75074116     0.36750
C774        C  0.25139617  0.88309855  0.59632940     0.36660
N775        N  0.15213123  0.94052441  0.77799269    -0.43590
N776        N  0.25892773  0.88907164  0.55966010    -0.43590
C777        C  0.23115592  0.02125792  0.70235989     0.00000
C778        C  0.21423289  0.05144954  0.73185866    -0.11870
C779        C  0.20165852  0.09274273  0.71862398     0.02240
C780        C  0.20733539  0.10735975  0.67383337    -0.00090
C781        C  0.23117643  0.07717749  0.64824080    -0.11810
C782        C  0.23947804  0.03546261  0.65993250     0.02120
H783        H  0.20929947  0.04197768  0.76568623     0.15100
H784        H  0.23598916  0.08160728  0.61368906     0.15100
C785        C  0.25588975  0.00812160  0.62574711     0.36750
C786        C  0.17965036  0.11546686  0.75240608     0.36660
N787        N  0.26880719  0.98833637  0.59656815    -0.43590
N788        N  0.16207232  0.13043922  0.78194227    -0.43590
C789        C  0.30189001  0.02080255  0.76405761     0.00000
C790        C  0.30477756  0.02699360  0.80948032    -0.11870
C791        C  0.32302112  0.06363139  0.82855170     0.02240
C792        C  0.33509287  0.10026149  0.80287134    -0.00090
C793        C  0.33159175  0.09306955  0.75672174    -0.11810
C794        C  0.31841380  0.05378154  0.73777476     0.02120
H795        H  0.29447782  0.00167938  0.83064895     0.15100
H796        H  0.34480032  0.11510428  0.73451813     0.15100
C797        C  0.32906847  0.04647751  0.69222125     0.36750
C798        C  0.33149177  0.06004939  0.87519545     0.36660
N799        N  0.33951152  0.04180694  0.65599614    -0.43590
N800        N  0.33727916  0.05643802  0.91258088    -0.43590
C801        C  0.32506341  0.85392742  0.78454179     0.00000
C802        C  0.34654975  0.87897021  0.75291742    -0.11870
C803        C  0.33437395  0.92005925  0.74228311     0.02240
C804        C  0.29839727  0.93750166  0.76128692    -0.00090
C805        C  0.27259494  0.91007614  0.78541822    -0.11810
C806        C  0.28336077  0.86748812  0.79155926     0.02120
H807        H  0.37663129  0.87005876  0.74038383     0.15100
H808        H  0.24255506  0.92110508  0.79692183     0.15100
C809        C  0.24976263  0.83814567  0.80047075     0.36750
C810        C  0.36073184  0.94400998  0.71309351     0.36660
N811        N  0.22229623  0.81571654  0.80905955    -0.43590
N812        N  0.38267148  0.96240111  0.68980666    -0.43590
C813        C  0.13265063  0.65993596  0.16240967     0.00000
C814        C  0.10427455  0.63276007  0.18568680    -0.11870
C815        C  0.06430592  0.64519775  0.20262355     0.02240
C816        C  0.04778133  0.68526543  0.19403809    -0.00090
C817        C  0.07228054  0.71051851  0.16655001    -0.11810
C818        C  0.11306556  0.69958693  0.15139427     0.02120
H819        H  0.11211410  0.59991459  0.18889528     0.15100
H820        H  0.05799285  0.73913526  0.15483465     0.15100
C821        C  0.12666369  0.72761985  0.11746762     0.36750
C822        C  0.04015509  0.61554363  0.22779425     0.36660
N823        N  0.13321651  0.75182383  0.09011427    -0.43590
N824        N  0.02075333  0.59181811  0.24811388    -0.43590
C825        C  0.77729523  0.68783966  0.02427617     0.00000
C826        C  0.77940300  0.64382465  0.02212600    -0.11870
C827        C  0.78902132  0.62003253  0.05974150     0.02240
C828        C  0.81182131  0.64025884  0.09676774    -0.00090
C829        C  0.80312611  0.68356935  0.10077397    -0.11810
C830        C  0.77597033  0.70246162  0.06924466     0.02120
H831        H  0.77484796  0.62703632  0.99156275     0.15100
H832        H  0.81403885  0.70129387  0.12941379     0.15100
C833        C  0.73401231  0.70418021  0.08697003     0.36750
C834        C  0.78289157  0.57509004  0.05374768     0.36660
N835        N  0.70052231  0.70327566  0.10147019    -0.43590
N836        N  0.77751120  0.53939222  0.04762545    -0.43590
C837        C  0.96309262  0.68425998  0.19227447     0.00000
C838        C  0.96382804  0.67446326  0.14780825    -0.11870
C839        C  0.93343170  0.64811104  0.12824190     0.02240
C840        C  0.89066774  0.64396155  0.14425122    -0.00090
C841        C  0.88751966  0.65874903  0.18879887    -0.11810
C842        C  0.92371928  0.67477790  0.21355894     0.02120
H843        H  0.99268352  0.68060926  0.12997370     0.15100
H844        H  0.85814252  0.65363630  0.20582331     0.15100
C845        C  0.92033691  0.67676157  0.26084767     0.36750
C846        C  0.95511791  0.61754089  0.10233356     0.36660
N847        N  0.91716323  0.67722784  0.29884486    -0.43590
N848        N  0.98029002  0.59637543  0.08662486    -0.43590
C849        C  0.83031238  0.36629320  0.78638692     0.00000
C850        C  0.78741515  0.37187889  0.77519772    -0.11870
C851        C  0.77037660  0.41272977  0.76768285     0.02240
C852        C  0.79594105  0.44714945  0.75455022    -0.00090
C853        C  0.83919386  0.44133164  0.76166932    -0.11810
C854        C  0.85571750  0.40385591  0.78020802     0.02120
H855        H  0.76585818  0.34554554  0.77756871     0.15100
H856        H  0.86051978  0.46686168  0.75461600     0.15100
C857        C  0.89976474  0.40485706  0.79163525     0.36750
C858        C  0.73140086  0.42215512  0.78930872     0.36660
N859        N  0.93541400  0.40307534  0.79872742    -0.43590
N860        N  0.70131109  0.43020832  0.80882482    -0.43590
C861        C  0.05049389  0.69426336  0.75891320     0.00000
C862        C  0.05660130  0.69077637  0.80486247    -0.11870
C863        C  0.08923635  0.66634661  0.82370315     0.02240
C864        C  0.12522860  0.65263419  0.79905929    -0.00090
C865        C  0.11444124  0.65033578  0.75300222    -0.11810
C866        C  0.07898786  0.67039323  0.73338409     0.02120
H867        H  0.03360507  0.70331944  0.82707355     0.15100
H868        H  0.12755122  0.62644214  0.73247135     0.15100
C869        C  0.06928046  0.66111644  0.68772215     0.36750
C870        C  0.07669718  0.64510949  0.86332565     0.36660
N871        N  0.06084864  0.65325903  0.65135446    -0.43590
N872        N  0.06553439  0.62869125  0.89499663    -0.43590
C873        C  0.11515049  0.44465129  0.13238371     0.00000
C874        C  0.10182764  0.41474839  0.16274222    -0.11870
C875        C  0.10871957  0.37272443  0.15229626     0.02240
C876        C  0.14558284  0.36220317  0.12917232    -0.00090
C877        C  0.16214987  0.39315551  0.10089920    -0.11810
C878        C  0.14527047  0.43323369  0.10027030     0.02120
H879        H  0.07508423  0.42200043  0.18364736     0.15100
H880        H  0.18867696  0.38618294  0.07984526     0.15100
C881        C  0.14997307  0.45576971  0.05962448     0.36750
C882        C  0.07205563  0.34602641  0.15045854     0.36660
N883        N  0.15171634  0.47122060  0.02540571    -0.43590
N884        N  0.04125094  0.32671431  0.14711406    -0.43590
C885        C  0.15522074  0.60984721  0.10442549     0.00000
C886        C  0.17496741  0.57114303  0.09391342    -0.11870
C887        C  0.18873253  0.56348357  0.05056980     0.02240
C888        C  0.17147306  0.58683669  0.01619998    -0.00090
C889        C  0.15511163  0.62661471  0.02646446    -0.11810
C890        C  0.13738722  0.63165656  0.06826739     0.02120
H891        H  0.18503387  0.55024225  0.11942147     0.15100
H892        H  0.14180962  0.64468822  0.99979515     0.15100
C893        C  0.09549878  0.64838313  0.07019957     0.36750
C894        C  0.21966488  0.53183096  0.04128716     0.36660
N895        N  0.06151630  0.66093541  0.07059144    -0.43590
N896        N  0.24488063  0.50678590  0.03375487    -0.43590
C897        C  0.88295185  0.60488255  0.97796014     0.00000
C898        C  0.87271749  0.64309615  0.99700773    -0.11870
C899        C  0.87829076  0.64719645  0.04246695     0.02240
C900        C  0.87278655  0.61075716  0.07045259    -0.00090
C901        C  0.87222678  0.57098111  0.04927777    -0.11810
C902        C  0.87434742  0.56825727  0.00273413     0.02120
H903        H  0.87458212  0.67112100  0.97702203     0.15100
H904        H  0.86657990  0.54287776  0.06819158     0.15100
C905        C  0.87424388  0.52751013  0.98118439     0.36750
C906        C  0.88602502  0.68952734  0.05895730     0.36660
N907        N  0.87390018  0.49491385  0.96362975    -0.43590
N908        N  0.89305607  0.72326776  0.07196793    -0.43590
C909        C  0.87202590  0.33838631  0.85168475     0.00000
C910        C  0.89965300  0.30818873  0.86994031    -0.11870
C911        C  0.90013896  0.30058348  0.91520932     0.02240
C912        C  0.88420523  0.33139018  0.94320355    -0.00090
C913        C  0.85235905  0.35670474  0.92771673    -0.11810
C914        C  0.85137280  0.36598843  0.88297608     0.02120
H915        H  0.91546585  0.28573493  0.84955952     0.15100
H916        H  0.83757245  0.37858939  0.95057379     0.15100
C917        C  0.82610647  0.40202668  0.87232743     0.36750
C918        C  0.92520326  0.26715957  0.93286718     0.36660
N919        N  0.80551021  0.43116387  0.86604589    -0.43590
N920        N  0.94526797  0.24034046  0.94708161    -0.43590
C921        C  0.15069612  0.58877152  0.84300726     0.00000
C922        C  0.12503105  0.56312838  0.81487481    -0.11870
C923        C  0.12561695  0.51917584  0.81584370     0.02240
C924        C  0.15260056  0.49856600  0.84587663    -0.00090
C925        C  0.18347072  0.52334480  0.86692229    -0.11810
C926        C  0.17570294  0.56637909  0.87380382     0.02120
H927        H  0.10444756  0.57698709  0.79088427     0.15100
H928        H  0.20459266  0.50830110  0.88985559     0.15100
C929        C  0.19905047  0.58632052  0.90879826     0.36750
C930        C  0.09058802  0.49751594  0.79475110     0.36660
N931        N  0.21909724  0.60056892  0.93705214    -0.43590
N932        N  0.06209182  0.48057745  0.77837211    -0.43590
C933        C  0.13346672  0.35124143  0.97180257     0.00000
C934        C  0.16376719  0.37853488  0.95388380    -0.11870
C935        C  0.17215451  0.37795229  0.90803804     0.02240
C936        C  0.15413402  0.34576422  0.88018256    -0.00090
C937        C  0.13269024  0.31307441  0.90323408    -0.11810
C938        C  0.12546682  0.31379079  0.94824434     0.02120
H939        H  0.17518597  0.40474431  0.97392875     0.15100
H940        H  0.12099867  0.28556630  0.88577758     0.15100
C941        C  0.09676281  0.28209605  0.96473523     0.36750
C942        C  0.20195053  0.40849895  0.89237992     0.36660
N943        N  0.07368352  0.25651914  0.97697167    -0.43590
N944        N  0.22716213  0.43207990  0.88047677    -0.43590
C945        C  0.94777603  0.43979162  0.13036284     0.00000
C946        C  0.95761507  0.40440936  0.10368229    -0.11870
C947        C  0.93311266  0.36794712  0.10500675     0.02240
C948        C  0.90088707  0.36514820  0.13677644    -0.00090
C949        C  0.90440529  0.39578943  0.17214248    -0.11810
C950        C  0.92849498  0.43193005  0.16936170     0.02120
H951        H  0.97864237  0.40717822  0.07658025     0.15100
H952        H  0.89200829  0.39208407  0.20406308     0.15100
C953        C  0.93626333  0.45868098  0.20738913     0.36750
C954        C  0.94178131  0.33568027  0.07245989     0.36660
N955        N  0.94322153  0.47933225  0.23836173    -0.43590
N956        N  0.95020370  0.31143510  0.04514122    -0.43590
C957        C  0.82293444  0.66727640  0.85115585     0.00000
C958        C  0.78948137  0.64699931  0.87406010    -0.11870
C959        C  0.77101701  0.66269354  0.91334120     0.02240
C960        C  0.78896549  0.69737392  0.93625816    -0.00090
C961        C  0.81773884  0.72134247  0.91135136    -0.11810
C962        C  0.82978013  0.70937807  0.86771474     0.02120
H963        H  0.77654521  0.61763604  0.86252386     0.15100
H964        H  0.82800180  0.75163768  0.92443772     0.15100
C965        C  0.84293872  0.74320876  0.83951682     0.36750
C966        C  0.73172610  0.64416113  0.92720980     0.36660
N967        N  0.85289436  0.77079393  0.81722259    -0.43590
N968        N  0.70018108  0.62944113  0.93819956    -0.43590
C969        C  0.88609339  0.67616437  0.79301359     0.00000
C970        C  0.89567622  0.67706301  0.74741524    -0.11870
C971        C  0.93832256  0.67970206  0.73370710     0.02240
C972        C  0.96762493  0.70489138  0.75750027    -0.00090
C973        C  0.95514132  0.71441472  0.80115598    -0.11810
C974        C  0.91917665  0.69457581  0.82017491     0.02120
H975        H  0.87229963  0.66815621  0.72322011     0.15100
H976        H  0.97517652  0.73386854  0.82198517     0.15100
C977        C  0.91992372  0.69054825  0.86745336     0.36750
C978        C  0.95345553  0.64770343  0.70371564     0.36660
N979        N  0.92138236  0.68785255  0.90541136    -0.43590
N980        N  0.96574099  0.62141986  0.68046657    -0.43590
C981        C  0.82264390  0.61919853  0.77433169     0.00000
C982        C  0.84222629  0.59418079  0.74042216    -0.11870
C983        C  0.82963563  0.55218857  0.72980346     0.02240
C984        C  0.79622049  0.53259189  0.75225379    -0.00090
C985        C  0.77201865  0.55992978  0.77909715    -0.11810
C986        C  0.78217688  0.60356335  0.78378089     0.02120
H987        H  0.87180441  0.60318458  0.72638404     0.15100
H988        H  0.74253890  0.54851922  0.79208957     0.15100
C989        C  0.74883947  0.63336090  0.78875561     0.36750
C990        C  0.85350866  0.52910162  0.69729926     0.36660
N991        N  0.72301166  0.65832964  0.79284313    -0.43590
N992        N  0.87315269  0.51066836  0.67162506    -0.43590
C993        C  0.87549744  0.60572863  0.82954848     0.00000
C994        C  0.91009769  0.59431049  0.80200674    -0.11870
C995        C  0.91273901  0.55396660  0.78381264     0.02240
C996        C  0.89813912  0.52207894  0.81016294    -0.00090
C997        C  0.86357286  0.52937998  0.83658738    -0.11810
C998        C  0.85491845  0.57062227  0.85027041     0.02120
H999        H  0.93230125  0.61672556  0.78959116     0.15100
H1000       H  0.85106128  0.50320879  0.85519184     0.15100
C1001       C  0.83192603  0.57287313  0.89085344     0.36750
C1002       C  0.94403176  0.54467780  0.75070117     0.36660
N1003       N  0.81211865  0.57181916  0.92274152    -0.43590
N1004       N  0.96911539  0.53624019  0.72465305    -0.43590
C1005       C  0.22777236  0.52805588  0.75606543     0.00000
C1006       C  0.20548620  0.55816952  0.73065956    -0.11870
C1007       C  0.19772360  0.59967428  0.74756984     0.02240
C1008       C  0.20273046  0.60893498  0.79233798    -0.00090
C1009       C  0.23519805  0.58415463  0.81172952    -0.11810
C1010       C  0.24526528  0.54357964  0.79579033     0.02120
H1011       H  0.19663324  0.55058625  0.69703569     0.15100
H1012       H  0.24781911  0.59243672  0.84371744     0.15100
C1013       C  0.27117017  0.51722728  0.82300020     0.36750
C1014       C  0.19970907  0.63593118  0.71978381     0.36660
N1015       N  0.29145219  0.49610847  0.84521635    -0.43590
N1016       N  0.20013661  0.66771971  0.70167856    -0.43590
C1017       C  0.22390630  0.44452371  0.75770403     0.00000
C1018       C  0.24909653  0.41138286  0.77255407    -0.11870
C1019       C  0.23163852  0.37335890  0.78837956     0.02240
C1020       C  0.18928695  0.37149790  0.80407705    -0.00090
C1021       C  0.16364451  0.40454964  0.78806567    -0.11810
C1022       C  0.18021204  0.43775092  0.76162553     0.02120
H1023       H  0.28259776  0.41384614  0.77020107     0.15100
H1024       H  0.13006108  0.40265549  0.79301037     0.15100
C1025       C  0.15276507  0.46019800  0.73255155     0.36750
C1026       C  0.25631458  0.33591908  0.78147108     0.36660
N1027       N  0.13193194  0.47773778  0.70756694    -0.43590
N1028       N  0.27511121  0.30538740  0.77535047    -0.43590
C1029       C  0.80145524  0.50376430  0.19116326     0.00000
C1030       C  0.84425288  0.51555370  0.19492757    -0.11870
C1031       C  0.86236092  0.55019161  0.17115843     0.02240
C1032       C  0.83697652  0.57770857  0.14511337    -0.00090
C1033       C  0.79318313  0.56780308  0.14798328    -0.11810
C1034       C  0.77760153  0.52889790  0.16302083     0.02120
H1035       H  0.86372320  0.49720578  0.21640038     0.15100
H1036       H  0.76957619  0.58844764  0.13525859     0.15100
C1037       C  0.74147886  0.51147309  0.14039117     0.36750
C1038       C  0.90640386  0.55813762  0.17810955     0.36660
N1039       N  0.71424765  0.49714511  0.11955104    -0.43590
N1040       N  0.94165994  0.56405820  0.18539767    -0.43590
C1041       C  0.80163527  0.42200123  0.20055698     0.00000
C1042       C  0.79492440  0.40805925  0.15724895    -0.11870
C1043       C  0.80302027  0.36616300  0.14528983     0.02240
C1044       C  0.83240068  0.34157394  0.16873925    -0.00090
C1045       C  0.83238248  0.35182155  0.21459167    -0.11810
C1046       C  0.81755139  0.39175499  0.23050881     0.02120
H1047       H  0.77568705  0.42691518  0.13571794     0.15100
H1048       H  0.84965812  0.33306494  0.23716348     0.15100
C1049       C  0.82231071  0.40217777  0.27668863     0.36750
C1050       C  0.77045730  0.34536503  0.12036982     0.36660
N1051       N  0.82597166  0.41043890  0.31379912    -0.43590
N1052       N  0.74340221  0.32902054  0.10126399    -0.43590
C1053       C  0.13666737  0.16560718  0.66165159     0.00000
C1054       C  0.10029639  0.16957651  0.63403661    -0.11870
C1055       C  0.06386057  0.19202546  0.64615924     0.02240
C1056       C  0.05779997  0.20678219  0.69004870    -0.00090
C1057       C  0.09373673  0.20211329  0.71812891    -0.11810
C1058       C  0.13373141  0.18778179  0.70214796     0.02120
H1059       H  0.10094602  0.15599766  0.60102929     0.15100
H1060       H  0.09161006  0.21191360  0.75219167     0.15100
C1061       C  0.17178699  0.20167284  0.72391037     0.36750
C1062       C  0.03390919  0.20047551  0.61158471     0.36660
N1063       N  0.20282546  0.21271457  0.74056562    -0.43590
N1064       N  0.01026641  0.20731071  0.58355855    -0.43590
C1065       C  0.97304218  0.20563934  0.68609950     0.00000
C1066       C  0.97093971  0.16187833  0.67901759    -0.11870
C1067       C  0.93786047  0.14315036  0.65376918     0.02240
C1068       C  0.89631238  0.16052791  0.65259218    -0.00090
C1069       C  0.89755101  0.20470466  0.66192566    -0.11810
C1070       C  0.93627242  0.22704258  0.67111575     0.02120
H1071       H  0.99911427  0.14380358  0.68458193     0.15100
H1072       H  0.86966531  0.22288147  0.65546085     0.15100
C1073       C  0.93998839  0.26907910  0.65442471     0.36750
C1074       C  0.95388960  0.11925032  0.61732301     0.36660
N1075       N  0.94325465  0.30205762  0.63903387    -0.43590
N1076       N  0.97018378  0.10231433  0.58836050    -0.43590
C1077       C  0.88270049  0.30254546  0.77471819     0.00000
C1078       C  0.89549120  0.26012029  0.77542312    -0.11870
C1079       C  0.93830096  0.24778906  0.77007536     0.02240
C1080       C  0.96832604  0.27544009  0.75151541    -0.00090
C1081       C  0.95293117  0.31523358  0.74007609    -0.11810
C1082       C  0.90998739  0.32623360  0.74669643     0.02120
H1083       H  0.87155204  0.23631772  0.77470149     0.15100
H1084       H  0.97273446  0.33534850  0.72025755     0.15100
C1085       C  0.89188055  0.35137571  0.71224870     0.36750
C1086       C  0.95162028  0.20710004  0.78488889     0.36660
N1087       N  0.87761376  0.37104994  0.68416063    -0.43590
N1088       N  0.96376947  0.17511491  0.79723443    -0.43590
C1089       C  0.12878890  0.31635893  0.80340214     0.00000
C1090       C  0.08723230  0.31943734  0.82049282    -0.11870
C1091       C  0.05207867  0.29836497  0.80178051     0.02240
C1092       C  0.05201536  0.28328122  0.75757627    -0.00090
C1093       C  0.09054167  0.29103777  0.73512480    -0.11810
C1094       C  0.12869495  0.30365402  0.75777935     0.02120
H1095       H  0.08102896  0.33711993  0.85034176     0.15100
H1096       H  0.09184586  0.28466104  0.69998046     0.15100
C1097       C  0.16618565  0.30613052  0.73161775     0.36750
C1098       C  0.01839456  0.28964352  0.83170854     0.36660
N1099       N  0.19530963  0.30802349  0.70905163    -0.43590
N1100       N  0.99328187  0.28201586  0.85779619    -0.43590
C1101       C  0.72979038  0.20970812  0.01994176     0.00000
C1102       C  0.73310097  0.16589956  0.02354767    -0.11870
C1103       C  0.71785967  0.14342362  0.05988595     0.03360
C1104       C  0.69750313  0.16413104  0.09615512    -0.00090
C1105       C  0.69600592  0.20887755  0.09305036    -0.11810
C1106       C  0.70865864  0.23067656  0.05446894     0.02120
H1107       H  0.74845216  0.14826572  0.99772527     0.15100
H1108       H  0.68229955  0.22718936  0.11955532     0.15100
C1109       C  0.69307498  0.27243119  0.04739404     0.36750
C1110       C  0.72575416  0.09892120  0.05755058     0.36660
N1111       N  0.67926793  0.30528782  0.04060329    -0.43590
N1112       N  0.73468270  0.06407679  0.05188719    -0.43590
C1113       C  0.70315590  0.17486059  0.85082569     0.00000
C1114       C  0.68805844  0.21444781  0.86749238    -0.11870
C1115       C  0.69898049  0.23141348  0.90924522     0.02240
C1116       C  0.73044048  0.21297465  0.93460381    -0.00090
C1117       C  0.75052797  0.17809793  0.91681913    -0.11810
C1118       C  0.73471768  0.15653944  0.87964786     0.02120
H1119       H  0.66043451  0.22833460  0.85418127     0.15100
H1120       H  0.77672030  0.16502056  0.93485821     0.15100
C1121       C  0.74685136  0.11283828  0.88032047     0.36750
C1122       C  0.67381911  0.26499317  0.92728023     0.36660
N1123       N  0.75773407  0.07832550  0.88351138    -0.43590
N1124       N  0.65264415  0.29131530  0.94132309    -0.43590
C1125       C  0.80327554  0.27650536  0.01785360     0.00000
C1126       C  0.81507265  0.31890553  0.02292399    -0.11870
C1127       C  0.84058079  0.33438568  0.05847772     0.02240
C1128       C  0.85251017  0.30807729  0.09492873    -0.00090
C1129       C  0.83578376  0.26650534  0.09149601    -0.11810
C1130       C  0.81756880  0.24976291  0.05177242     0.02120
H1131       H  0.80274740  0.34081408  0.99941624     0.15100
H1132       H  0.84053141  0.24546144  0.11881412     0.15100
C1133       C  0.82147870  0.20521123  0.04352100     0.36750
C1134       C  0.84599038  0.37938730  0.05941688     0.36660
N1135       N  0.82671274  0.16975476  0.03640786    -0.43590
N1136       N  0.84727821  0.41573320  0.05932108    -0.43590
C1137       C  0.79066516  0.27606733  0.93021223     0.00000
C1138       C  0.81695762  0.24987589  0.90643791    -0.11870
C1139       C  0.82703291  0.25584865  0.86144657     0.02240
C1140       C  0.81482496  0.29344391  0.83678581    -0.00090
C1141       C  0.78112188  0.31440469  0.86000444    -0.11810
C1142       C  0.77069407  0.30745265  0.90538567     0.02120
H1143       H  0.82972670  0.22319231  0.92395848     0.15100
H1144       H  0.76753645  0.34238590  0.84713749     0.15100
C1145       C  0.74308091  0.33668369  0.92725539     0.36750
C1146       C  0.85283773  0.22168051  0.84709211     0.36660
N1147       N  0.72150738  0.36065534  0.94486544    -0.43590
N1148       N  0.87287067  0.19201944  0.84068199    -0.43590
C1149       C  0.23470289  0.70045837  0.02775204     0.00000
C1150       C  0.22042511  0.72619746  0.06348761    -0.11870
C1151       C  0.21130643  0.70869121  0.10584016     0.02240
C1152       C  0.20808586  0.66491668  0.11080363    -0.00090
C1153       C  0.23352591  0.64286473  0.07935102    -0.11810
C1154       C  0.24466178  0.65899735  0.03829331     0.02120
H1155       H  0.22010821  0.76003809  0.05965040     0.15100
H1156       H  0.24267817  0.61095168  0.08436532     0.15100
C1157       C  0.27081708  0.63351685  0.00980647     0.36750
C1158       C  0.21715716  0.73401568  0.14513019     0.36660
N1159       N  0.29315531  0.61349711  0.98822783    -0.43590
N1160       N  0.22451767  0.75280250  0.17723240    -0.43590
C1161       C  0.22721152  0.69983895  0.94069731     0.00000
C1162       C  0.25039965  0.68297869  0.90535291    -0.11870
C1163       C  0.23216503  0.67098888  0.86426546     0.02240
C1164       C  0.18798124  0.66261582  0.85985134    -0.00090
C1165       C  0.16482771  0.68175300  0.89516286    -0.11810
C1166       C  0.18351944  0.70106017  0.93339450     0.02120
H1167       H  0.28339633  0.67838115  0.90947385     0.15100
H1168       H  0.13187509  0.68438262  0.89375046     0.15100
C1169       C  0.15688543  0.72321947  0.96407001     0.36750
C1170       C  0.26080467  0.67017006  0.82779833     0.36660
N1171       N  0.13537684  0.74130042  0.98827799    -0.43590
N1172       N  0.28506374  0.66853912  0.79968242    -0.43590
C1173       C  0.30429442  0.76452013  0.02320101     0.00000
C1174       C  0.32239596  0.80451203  0.01976526    -0.11870
C1175       C  0.34933199  0.82003714  0.05280849     0.02240
C1176       C  0.34338658  0.80886022  0.09844061    -0.00090
C1177       C  0.32179282  0.77017323  0.10319991    -0.11810
C1178       C  0.31076323  0.74527328  0.06521556     0.02120
H1179       H  0.32390313  0.81916919  0.98793726     0.15100
H1180       H  0.32233040  0.75555647  0.13526741     0.15100
C1181       C  0.32278874  0.70184002  0.06743113     0.36750
C1182       C  0.39018892  0.82924928  0.03478054     0.36660
N1183       N  0.33574328  0.66805495  0.07006395    -0.43590
N1184       N  0.42243160  0.83342008  0.01799609    -0.43590
C1185       C  0.29611747  0.76140114  0.93602786     0.00000
C1186       C  0.27630077  0.79722003  0.92033622    -0.11870
C1187       C  0.29178313  0.81897184  0.88347959     0.02240
C1188       C  0.32207594  0.80008706  0.85324824    -0.00090
C1189       C  0.33542924  0.75937765  0.86601500    -0.11810
C1190       C  0.32785946  0.74386362  0.90907567     0.02120
H1191       H  0.25284471  0.81190958  0.94119987     0.15100
H1192       H  0.35667489  0.74181267  0.84529486     0.15100
C1193       C  0.35407782  0.71067736  0.92550093     0.36750
C1194       C  0.28275629  0.86360204  0.88556150     0.36660
N1195       N  0.37507015  0.68415638  0.93883953    -0.43590
N1196       N  0.27553777  0.89916393  0.88878900    -0.43590
C1197       C  0.23468831  0.45104881  0.20510428     0.00000
C1198       C  0.25878170  0.42572094  0.17683422    -0.11870
C1199       C  0.24637478  0.38419657  0.16304745     0.02240
C1200       C  0.20633095  0.36541130  0.17549836    -0.00090
C1201       C  0.18452867  0.39251366  0.20580611    -0.11810
C1202       C  0.19633846  0.43377987  0.21842256     0.02120
H1203       H  0.28949053  0.43780747  0.16769526     0.15100
H1204       H  0.15377460  0.38442828  0.21643900     0.15100
C1205       C  0.16751702  0.45680483  0.24597998     0.36750
C1206       C  0.28078095  0.36252285  0.14314620     0.36660
N1207       N  0.14232225  0.47317759  0.26736063    -0.43590
N1208       N  0.31155506  0.34835533  0.12960471    -0.43590
C1209       C  0.20159972  0.61041196  0.17570291     0.00000
C1210       C  0.18793459  0.59482669  0.21729996    -0.11870
C1211       C  0.20663828  0.55834938  0.23680897     0.02240
C1212       C  0.23576052  0.53333635  0.21257140    -0.00090
C1213       C  0.24947155  0.55069171  0.17302703    -0.11810
C1214       C  0.24046957  0.59276570  0.16308729     0.02120
H1215       H  0.16447479  0.61156977  0.23596623     0.15100
H1216       H  0.27117984  0.53356547  0.15255079     0.15100
C1217       C  0.27621254  0.62072421  0.15983706     0.36750
C1218       C  0.19653480  0.54829472  0.28168091     0.36660
N1219       N  0.30416456  0.64407155  0.15789366    -0.43590
N1220       N  0.18899054  0.54083154  0.31804923    -0.43590
C1221       C  0.19793483  0.16121312  0.60373135     0.00000
C1222       C  0.17874666  0.19405761  0.57871020    -0.11870
C1223       C  0.19698980  0.21084395  0.53948704     0.02240
C1224       C  0.23220837  0.19160003  0.51963485    -0.00090
C1225       C  0.25014411  0.15895937  0.54353244    -0.11810
C1226       C  0.23917366  0.15242242  0.58804118     0.02120
H1227       H  0.15098776  0.20952333  0.59033240     0.15100
H1228       H  0.27710987  0.14312824  0.53007640     0.15100
C1229       C  0.27407004  0.14844343  0.61815081     0.36750
C1230       C  0.17959506  0.24832783  0.52073651     0.36660
N1231       N  0.30202114  0.14421133  0.64205435    -0.43590
N1232       N  0.16600914  0.27867138  0.50585852    -0.43590
C1233       C  0.21235413  0.16416717  0.34720821     0.00000
C1234       C  0.24990261  0.14863516  0.36614202    -0.11870
C1235       C  0.26151758  0.15909605  0.41016557     0.02240
C1236       C  0.23963395  0.19098429  0.43331104    -0.00090
C1237       C  0.21161721  0.21493401  0.40867576    -0.11810
C1238       C  0.20415944  0.20476637  0.36409912     0.02120
H1239       H  0.26942527  0.12743820  0.34737777     0.15100
H1240       H  0.20045869  0.24454677  0.42203196     0.15100
C1241       C  0.20857517  0.23891597  0.33436925     0.36750
C1242       C  0.29480705  0.13607438  0.43084317     0.36660
N1243       N  0.21260499  0.26641490  0.31048691    -0.43590
N1244       N  0.32110773  0.11692424  0.44737782    -0.43590
C1245       C  0.54921383  0.18347092  0.18374113     0.00000
C1246       C  0.57919672  0.16478015  0.21189194    -0.11870
C1247       C  0.62258215  0.16224687  0.20088622     0.02240
C1248       C  0.63673569  0.16783647  0.15717868    -0.00090
C1249       C  0.60775290  0.19172019  0.13131371    -0.11810
C1250       C  0.56543741  0.19913641  0.14389664     0.02120
H1251       H  0.56962820  0.15597304  0.24459373     0.15100
H1252       H  0.61646957  0.20212131  0.09887847     0.15100
C1253       C  0.53911156  0.22340647  0.11516402     0.36750
C1254       C  0.65262250  0.16613153  0.23631332     0.36660
N1255       N  0.51792139  0.24292300  0.09226055    -0.43590
N1256       N  0.67734895  0.17056068  0.26403291    -0.43590
C1257       C  0.38153961  0.14078126  0.15249257     0.00000
C1258       C  0.41884727  0.11678079  0.16020020    -0.11870
C1259       C  0.45744452  0.13416435  0.17705037     0.02240
C1260       C  0.46373242  0.17805423  0.18294460    -0.00090
C1261       C  0.42794264  0.20251989  0.17342390    -0.11810
C1262       C  0.38761031  0.18480509  0.16306148     0.02120
H1263       H  0.41962264  0.08363801  0.15498875     0.15100
H1264       H  0.43065004  0.23636480  0.17523316     0.15100
C1265       C  0.35290501  0.21364938  0.16544325     0.36750
C1266       C  0.48924570  0.10536497  0.19147159     0.36660
N1267       N  0.32563182  0.23736831  0.16794483    -0.43590
N1268       N  0.51416357  0.08224158  0.20433379    -0.43590
C1269       C  0.07102476  0.25538914  0.20478261     0.00000
C1270       C  0.09165240  0.28694726  0.22985444    -0.11870
C1271       C  0.13197124  0.30311318  0.21897132     0.02240
C1272       C  0.15022394  0.29579348  0.17625854    -0.00090
C1273       C  0.13200604  0.25965035  0.15448137    -0.11810
C1274       C  0.09359587  0.24010374  0.16791189     0.02120
H1275       H  0.07650549  0.29946527  0.25874589     0.15100
H1276       H  0.14684361  0.24655131  0.12559386     0.15100
C1277       C  0.07696945  0.20543831  0.14186318     0.36750
C1278       C  0.15472993  0.32159096  0.25562330     0.36660
N1279       N  0.06367195  0.17758874  0.12095269    -0.43590
N1280       N  0.17086870  0.33785762  0.28569554    -0.43590
C1281       C  0.88718161  0.16903672  0.27718140     0.00000
C1282       C  0.91337293  0.14275471  0.25048717    -0.11870
C1283       C  0.95514614  0.15424219  0.23882323     0.02240
C1284       C  0.97306346  0.19251012  0.25460650    -0.00090
C1285       C  0.94337567  0.22166295  0.27138520    -0.11810
C1286       C  0.90002716  0.21117471  0.27505441     0.02120
H1287       H  0.90067826  0.11482795  0.23480028     0.15100
H1288       H  0.95345949  0.25274800  0.28107081     0.15100
C1289       C  0.86804910  0.24253346  0.27049518     0.36750
C1290       C  0.97692493  0.12826597  0.20717349     0.36660
N1291       N  0.84012143  0.26535402  0.26841084    -0.43590
N1292       N  0.99402583  0.10756955  0.18132109    -0.43590
C1293       C  0.98836414  0.26135996  0.19607642     0.00000
C1294       C  0.96723218  0.24276234  0.16012911    -0.11870
C1295       C  0.92964702  0.25959783  0.14210125     0.02240
C1296       C  0.90703805  0.29382250  0.16369768    -0.00090
C1297       C  0.92786910  0.30836441  0.20304458    -0.11810
C1298       C  0.96889777  0.29652841  0.21561071     0.02120
H1299       H  0.98155778  0.21554462  0.14450796     0.15100
H1300       H  0.91462556  0.33274155  0.22296182     0.15100
C1301       C  0.98926084  0.32017515  0.25079451     0.36750
C1302       C  0.91984790  0.24126338  0.09961155     0.36660
N1303       N  0.00480417  0.33984786  0.27892050    -0.43590
N1304       N  0.91496307  0.22512208  0.06547141    -0.43590
C1305       C  0.13307904  0.15040850  0.31224826     0.00000
C1306       C  0.12108742  0.19377032  0.31424981    -0.11870
C1307       C  0.08251605  0.20951243  0.29846503     0.02240
C1308       C  0.05620940  0.18538165  0.27061396    -0.00090
C1309       C  0.06473930  0.14166386  0.27063727    -0.11810
C1310       C  0.09987973  0.12431608  0.29388321     0.02120
H1311       H  0.13664993  0.21567328  0.33528033     0.15100
H1312       H  0.04314948  0.12021719  0.25440893     0.15100
C1313       C  0.09977570  0.07927943  0.29909862     0.36750
C1314       C  0.06645609  0.24715917  0.31940149     0.36660
N1315       N  0.09934611  0.04307169  0.30262698    -0.43590
N1316       N  0.05352623  0.27663972  0.33740980    -0.43590
C1317       C  0.29373235  0.93485815  0.19909668     0.00000
C1318       C  0.33449340  0.92793511  0.21323608    -0.11870
C1319       C  0.35730720  0.89213559  0.20075802     0.02240
C1320       C  0.33920579  0.85882049  0.17285638    -0.00090
C1321       C  0.29552235  0.86319438  0.16474845    -0.11810
C1322       C  0.27375611  0.90121977  0.17524479     0.02120
H1323       H  0.34971415  0.95200239  0.23334135     0.15100
H1324       H  0.27955332  0.83984941  0.14426572     0.15100
C1325       C  0.23286488  0.90692356  0.15583735     0.36750
C1326       C  0.40122225  0.89663278  0.21202125     0.36660
N1327       N  0.20055679  0.91129774  0.13903189    -0.43590
N1328       N  0.43589088  0.90328385  0.22149438    -0.43590
C1329       C  0.22309678  0.01219814  0.26906529     0.00000
C1330       C  0.19904181  0.04201079  0.24594450    -0.11870
C1331       C  0.18745722  0.08165912  0.26503214     0.02240
C1332       C  0.19420041  0.09114958  0.31101003    -0.00090
C1333       C  0.22364648  0.06321456  0.33045019    -0.11810
C1334       C  0.23624441  0.02446958  0.31154127     0.02120
H1335       H  0.19056800  0.03522983  0.21199408     0.15100
H1336       H  0.23805127  0.07053250  0.36166267     0.15100
C1337       C  0.26412652  0.99818622  0.33654031     0.36750
C1338       C  0.17346723  0.11341725  0.23490286     0.36660
N1339       N  0.28639622  0.97723363  0.35675026    -0.43590
N1340       N  0.16254501  0.13901426  0.21073092    -0.43590
C1341       C  0.28637391  0.01822101  0.20006485     0.00000
C1342       C  0.26295671  0.03679369  0.16669601    -0.11870
C1343       C  0.26957563  0.07894953  0.15451507     0.02240
C1344       C  0.30713169  0.10158689  0.16726724    -0.00090
C1345       C  0.32679346  0.08497037  0.20540270    -0.11810
C1346       C  0.31656710  0.04439668  0.22187222     0.02120
H1347       H  0.23639463  0.01939105  0.15292204     0.15100
H1348       H  0.35312387  0.10168638  0.22026640     0.15100
C1349       C  0.33875008  0.03019857  0.26028374     0.36750
C1350       C  0.23363562  0.09854672  0.13512712     0.36660
N1351       N  0.35696780  0.01925534  0.29109043    -0.43590
N1352       N  0.20305965  0.11265681  0.12114814    -0.43590
C1353       C  0.22590676  0.92853565  0.26070995     0.00000
C1354       C  0.25334126  0.89958821  0.28000504    -0.11870
C1355       C  0.24235649  0.85655611  0.28701454     0.02240
C1356       C  0.20050545  0.84012006  0.27760453    -0.00090
C1357       C  0.17621820  0.87018881  0.25299959    -0.11810
C1358       C  0.18731238  0.91263181  0.24633299     0.02120
H1359       H  0.28454529  0.91072950  0.28900684     0.15100
H1360       H  0.14364126  0.86460771  0.24620497     0.15100
C1361       C  0.15718593  0.94000470  0.22572406     0.36750
C1362       C  0.27674791  0.83271478  0.30403700     0.36660
N1363       N  0.13300455  0.96183546  0.20930722    -0.43590
N1364       N  0.30691290  0.81697913  0.31709642    -0.43590
C1365       C  0.23400211  0.26839675  0.93340441     0.00000
C1366       C  0.20765409  0.24418895  0.90492764    -0.11870
C1367       C  0.19401572  0.25919096  0.86305462     0.02240
C1368       C  0.20430806  0.30092231  0.84926769    -0.00090
C1369       C  0.23862735  0.31935706  0.87395349    -0.11810
C1370       C  0.25133735  0.30515675  0.91576362     0.02120
H1371       H  0.19589881  0.21419438  0.91633389     0.15100
H1372       H  0.25105994  0.34965765  0.86513075     0.15100
C1373       C  0.28131235  0.33017046  0.94086602     0.36750
C1374       C  0.16367805  0.23382452  0.83927959     0.36660
N1375       N  0.30527966  0.35026278  0.96099172    -0.43590
N1376       N  0.13829726  0.21323214  0.82194226    -0.43590
C1377       C  0.28750242  0.19839261  0.02340957     0.00000
C1378       C  0.33040396  0.19060111  0.02711352    -0.11870
C1379       C  0.34704310  0.16894822  0.06273985     0.02240
C1380       C  0.32127371  0.15686911  0.09904382    -0.00090
C1381       C  0.28049261  0.17347819  0.09974397    -0.11810
C1382       C  0.26214047  0.18950595  0.06081376     0.02120
H1383       H  0.35117945  0.20036976  0.00097126     0.15100
H1384       H  0.26184078  0.17077288  0.12911087     0.15100
C1385       C  0.21692472  0.19073003  0.05857026     0.36750
C1386       C  0.39010927  0.15608165  0.05850592     0.36660
N1387       N  0.18062646  0.19039910  0.05701165    -0.43590
N1388       N  0.42442955  0.14535181  0.05450018    -0.43590
C1389       C  0.23202274  0.27530646  0.02123841     0.00000
C1390       C  0.18904210  0.28134705  0.02613922    -0.11870
C1391       C  0.17099941  0.29822113  0.06507160     0.02240
C1392       C  0.19588826  0.30776700  0.10402871    -0.00090
C1393       C  0.23776828  0.29429941  0.10070834    -0.11810
C1394       C  0.25689820  0.28456579  0.05931388     0.02120
H1395       H  0.16913099  0.26959953  0.00000497     0.15100
H1396       H  0.25579351  0.29114200  0.13061145     0.15100
C1397       C  0.30208806  0.28488800  0.05679582     0.36750
C1398       C  0.12575153  0.30049113  0.06471562     0.36660
N1399       N  0.33834550  0.28581739  0.05473678    -0.43590
N1400       N  0.08946978  0.30138851  0.06422357    -0.43590
C1401       C  0.29154804  0.19943292  0.93811988     0.00000
C1402       C  0.32155688  0.22261987  0.91481148    -0.11870
C1403       C  0.33928180  0.20724064  0.87507842     0.02240
C1404       C  0.33375217  0.16393016  0.86115020    -0.00090
C1405       C  0.29741986  0.14522195  0.88036554    -0.11810
C1406       C  0.27775779  0.16135867  0.91865050     0.02120
H1407       H  0.32911398  0.25430776  0.92617223     0.15100
H1408       H  0.28169762  0.11897988  0.86472177     0.15100
C1409       C  0.24123674  0.13974856  0.93523467     0.36750
C1410       C  0.35323071  0.23984719  0.84582462     0.36660
N1411       N  0.21139677  0.12268234  0.94759255    -0.43590
N1412       N  0.36383467  0.26651185  0.82268181    -0.43590
C1413       C  0.63206914  0.67540683  0.65783304     0.00000
C1414       C  0.62981006  0.68620161  0.70349876    -0.11870
C1415       C  0.59003469  0.69335673  0.72466954     0.02240
C1416       C  0.55421332  0.70463819  0.69998335    -0.00090
C1417       C  0.55917284  0.70428474  0.65434368    -0.11810
C1418       C  0.59306472  0.68347434  0.63435632     0.02120
H1419       H  0.65783948  0.68431293  0.72344942     0.15100
H1420       H  0.53286645  0.71396931  0.63413886     0.15100
C1421       C  0.58013025  0.66286970  0.59374635     0.36750
C1422       C  0.58452611  0.68654030  0.77117892     0.36660
N1423       N  0.56707513  0.64761907  0.56167321    -0.43590
N1424       N  0.57776408  0.68038703  0.80801986    -0.43590
C1425       C  0.70144410  0.61998352  0.66903327     0.00000
C1426       C  0.73597637  0.59932255  0.64738089    -0.11870
C1427       C  0.74997373  0.55810760  0.65613089     0.02240
C1428       C  0.73161238  0.53410610  0.68944153    -0.00090
C1429       C  0.70154283  0.55426497  0.71496939    -0.11810
C1430       C  0.68854079  0.59622269  0.70767692     0.02120
H1431       H  0.74811606  0.61051792  0.61701281     0.15100
H1432       H  0.68806841  0.53658779  0.74193883     0.15100
C1433       C  0.65809591  0.60852536  0.73991059     0.36750
C1434       C  0.78024765  0.54013975  0.62630068     0.36660
N1435       N  0.63462479  0.61341418  0.76842038    -0.43590
N1436       N  0.80417625  0.52765717  0.60081876    -0.43590
C1437       C  0.69155792  0.67187160  0.59651914     0.00000
C1438       C  0.66849395  0.69057334  0.56161696    -0.11870
C1439       C  0.68644579  0.70620235  0.52207903     0.02240
C1440       C  0.72934111  0.70036708  0.51205010    -0.00090
C1441       C  0.75332742  0.68608412  0.54846048    -0.11810
C1442       C  0.73556870  0.67951463  0.59117083     0.02120
H1443       H  0.63700683  0.69940751  0.56640995     0.15100
H1444       H  0.78662984  0.68225110  0.54481377     0.15100
C1445       C  0.76282121  0.68620756  0.62894097     0.36750
C1446       C  0.66086628  0.73449629  0.49724150     0.36660
N1447       N  0.78482122  0.69179844  0.65897549    -0.43590
N1448       N  0.63866363  0.75825070  0.48074443    -0.43590
C1449       C  0.47325732  0.26725376  0.69603816     0.00000
C1450       C  0.45574179  0.25125890  0.65713578    -0.11870
C1451       C  0.41240277  0.25656004  0.64861083     0.02240
C1452       C  0.38922193  0.29240478  0.66628427    -0.00090
C1453       C  0.41287846  0.31206424  0.70091885    -0.11810
C1454       C  0.44786671  0.29404409  0.72126175     0.02120
H1455       H  0.47306050  0.22705890  0.63947585     0.15100
H1456       H  0.41185873  0.34495521  0.70656217     0.15100
C1457       C  0.45905859  0.30710694  0.76562994     0.36750
C1458       C  0.39417456  0.21746562  0.63403103     0.36660
N1459       N  0.46778154  0.31757239  0.80123868    -0.43590
N1460       N  0.38382789  0.18323727  0.62602442    -0.43590
C1461       C  0.33343518  0.36157305  0.66252455     0.00000
C1462       C  0.29345781  0.37671711  0.64734469    -0.11870
C1463       C  0.27564734  0.41630437  0.66034795     0.02240
C1464       C  0.29655407  0.44403015  0.69026040    -0.00090
C1465       C  0.33342531  0.42789104  0.70889796    -0.11810
C1466       C  0.34565941  0.38516645  0.70172848     0.02120
H1467       H  0.27409916  0.35746093  0.62584319     0.15100
H1468       H  0.34698169  0.44517505  0.73660057     0.15100
C1469       C  0.35158351  0.36426078  0.74325608     0.36750
C1470       C  0.23545386  0.42775759  0.64236128     0.36660
N1471       N  0.35710782  0.34910997  0.77722947    -0.43590
N1472       N  0.20318702  0.43701177  0.62799839    -0.43590
C1473       C  0.32588684  0.30116854  0.60223119     0.00000
C1474       C  0.31830447  0.25755389  0.59984873    -0.11870
C1475       C  0.31260716  0.23729029  0.55810866     0.02240
C1476       C  0.29704241  0.25969507  0.52182237    -0.00090
C1477       C  0.29478339  0.30314101  0.52647137    -0.11810
C1478       C  0.31219399  0.32380722  0.56347856     0.02120
H1479       H  0.32248654  0.23916157  0.62892852     0.15100
H1480       H  0.28392746  0.32144410  0.49882886     0.15100
C1481       C  0.32196732  0.36739994  0.55625028     0.36750
C1482       C  0.33361581  0.19812758  0.54946838     0.36660
N1483       N  0.33133748  0.40162120  0.54853403    -0.43590
N1484       N  0.35137458  0.16736899  0.54128257    -0.43590
C1485       C  0.68683708  0.34573928  0.28918118     0.00000
C1486       C  0.69173217  0.38244402  0.31622716    -0.11870
C1487       C  0.71040383  0.42028303  0.30205323     0.02240
C1488       C  0.72495829  0.42484451  0.25799460    -0.00090
C1489       C  0.72107044  0.38728167  0.23154982    -0.11810
C1490       C  0.70821675  0.34762755  0.24877985     0.02120
H1491       H  0.68056867  0.38142816  0.34993171     0.15100
H1492       H  0.72938235  0.38774581  0.19734010     0.15100
C1493       C  0.72527350  0.30969050  0.22960332     0.36750
C1494       C  0.71447477  0.45206585  0.33595935     0.36660
N1495       N  0.73952774  0.27930858  0.21467400    -0.43590
N1496       N  0.71631010  0.47468530  0.36613227    -0.43590
C1497       C  0.68469708  0.28715166  0.34953318     0.00000
C1498       C  0.72747498  0.29991753  0.35713039    -0.11870
C1499       C  0.74911267  0.29469322  0.39780021     0.02240
C1500       C  0.73181565  0.27033068  0.43188590    -0.00090
C1501       C  0.69166270  0.25377343  0.42416965    -0.11810
C1502       C  0.66814995  0.26138764  0.38530257     0.02120
H1503       H  0.74449053  0.31691486  0.33223051     0.15100
H1504       H  0.67764005  0.23550503  0.45038186     0.15100
C1505       C  0.62512838  0.24722097  0.38998312     0.36750
C1506       C  0.78780787  0.31774641  0.40480086     0.36660
N1507       N  0.59108775  0.23598990  0.39642678    -0.43590
N1508       N  0.81854144  0.33683996  0.41025396    -0.43590
C1509       C  0.63563388  0.27397256  0.27471690     0.00000
C1510       C  0.61295417  0.24106286  0.29519037    -0.11870
C1511       C  0.56984806  0.23155857  0.28646297     0.02240
C1512       C  0.54921468  0.24823548  0.24943665    -0.00090
C1513       C  0.57465876  0.27268560  0.22181746    -0.11810
C1514       C  0.61694974  0.28384296  0.23267671     0.02120
H1515       H  0.62985387  0.22093987  0.31694038     0.15100
H1516       H  0.56232517  0.28090983  0.18978667     0.15100
C1517       C  0.64083065  0.29883054  0.19583736     0.36750
C1518       C  0.54832598  0.20147316  0.31371130     0.36660
N1519       N  0.65759703  0.31019053  0.16430815    -0.43590
N1520       N  0.53083416  0.17730247  0.33529401    -0.43590
C1521       C  0.40090179  0.67490718  0.27174209     0.00000
C1522       C  0.41810188  0.71518219  0.28229488    -0.11870
C1523       C  0.46198400  0.72241339  0.28068187     0.02240
C1524       C  0.48592870  0.70077369  0.24928561    -0.00090
C1525       C  0.46425402  0.67126489  0.22359822    -0.11810
C1526       C  0.42441787  0.65572431  0.23585265     0.02120
H1527       H  0.39854639  0.74044843  0.29285167     0.15100
H1528       H  0.47798184  0.66176051  0.19233396     0.15100
C1529       C  0.40577282  0.63296160  0.19942666     0.36750
C1530       C  0.48203460  0.75070298  0.31208622     0.36660
N1531       N  0.39363892  0.61674116  0.16739927    -0.43590
N1532       N  0.49856177  0.77201351  0.33825257    -0.43590
C1533       C  0.34944861  0.67291040  0.34534915     0.00000
C1534       C  0.35939724  0.71118055  0.36774986    -0.11870
C1535       C  0.34809574  0.71994457  0.41147259     0.02240
C1536       C  0.31521360  0.69718302  0.43079174    -0.00090
C1537       C  0.29566248  0.66572745  0.40433347    -0.11810
C1538       C  0.31093376  0.65524742  0.36150518     0.02120
H1539       H  0.37675377  0.73577357  0.35307058     0.15100
H1540       H  0.26655733  0.65173395  0.41564824     0.15100
C1541       C  0.28147419  0.63457350  0.33209131     0.36750
C1542       C  0.36402218  0.75881992  0.43056407     0.36660
N1543       N  0.25717156  0.61904570  0.30842364    -0.43590
N1544       N  0.37750202  0.79086729  0.44274278    -0.43590
C1545       C  0.36042107  0.60426629  0.29863165     0.00000
C1546       C  0.34321489  0.59807762  0.25608125    -0.11870
C1547       C  0.32881009  0.55834504  0.24019273     0.02240
C1548       C  0.31486641  0.52711082  0.26937553    -0.00090
C1549       C  0.32657838  0.53419366  0.31394091    -0.11810
C1550       C  0.35050188  0.57059753  0.32825393     0.02120
H1551       H  0.33992549  0.62465008  0.23494524     0.15100
H1552       H  0.31678699  0.51125482  0.33769631     0.15100
C1553       C  0.35941317  0.57493746  0.37476068     0.36750
C1554       C  0.33881783  0.54675778  0.19541727     0.36660
N1555       N  0.36555658  0.57856584  0.41226312    -0.43590
N1556       N  0.34859861  0.53662425  0.16011897    -0.43590
C1557       C  0.70434947  0.66564643  0.33698656     0.00000
C1558       C  0.68868062  0.70399931  0.35606329    -0.11870
C1559       C  0.70509763  0.72220307  0.39587433     0.02240
C1560       C  0.73286175  0.69926255  0.42297791    -0.00090
C1561       C  0.75084458  0.66377739  0.40224350    -0.11810
C1562       C  0.74246656  0.65382114  0.35696673     0.02120
H1563       H  0.66281174  0.72012706  0.34101615     0.15100
H1564       H  0.77608657  0.64795841  0.41906708     0.15100
C1565       C  0.77686535  0.64072169  0.32920767     0.36750
C1566       C  0.69513842  0.76533855  0.40623689     0.36660
N1567       N  0.80433396  0.63065358  0.30665549    -0.43590
N1568       N  0.68779493  0.80027293  0.41399331    -0.43590
C1569       C  0.64466908  0.65344321  0.27331842     0.00000
C1570       C  0.60821964  0.63080604  0.25977352    -0.11870
C1571       C  0.57187704  0.65023344  0.24375644     0.02240
C1572       C  0.56862799  0.69505278  0.24314281    -0.00090
C1573       C  0.60670840  0.71696655  0.25298825    -0.11810
C1574       C  0.64497819  0.69621801  0.26223040     0.02120
H1575       H  0.60710682  0.59709121  0.26419883     0.15100
H1576       H  0.60706032  0.75040819  0.25519085     0.15100
C1577       C  0.68443210  0.71826393  0.25746785     0.36750
C1578       C  0.54010589  0.62124931  0.22792076     0.36660
N1579       N  0.71671814  0.73466158  0.25323192    -0.43590
N1580       N  0.51695341  0.59543046  0.21531549    -0.43590
C1581       C  0.70051557  0.59214476  0.28775856     0.00000
C1582       C  0.68933789  0.57453417  0.24562747    -0.11870
C1583       C  0.69867105  0.53205754  0.23350210     0.02240
C1584       C  0.73076555  0.50972525  0.25522476    -0.00090
C1585       C  0.74747139  0.52943007  0.29302429    -0.11810
C1586       C  0.72772898  0.56478225  0.31280431     0.02120
H1587       H  0.66849312  0.59109945  0.22401497     0.15100
H1588       H  0.77159322  0.51300675  0.31114246     0.15100
C1589       C  0.73206466  0.56657253  0.36030937     0.36750
C1590       C  0.66982244  0.51011067  0.20432333     0.36660
N1591       N  0.73600685  0.56641507  0.39828997    -0.43590
N1592       N  0.64552649  0.49235348  0.18231006    -0.43590
C1593       C  0.34151530  0.35979537  0.28760993     0.00000
C1594       C  0.36653173  0.39439207  0.27264586    -0.11870
C1595       C  0.35062411  0.43373169  0.26026157     0.02240
C1596       C  0.30762272  0.44266487  0.26433797    -0.00090
C1597       C  0.28200010  0.40657692  0.27332284    -0.11810
C1598       C  0.29893290  0.36521552  0.27790270     0.02120
H1599       H  0.39998402  0.39259160  0.27228268     0.15100
H1600       H  0.24850116  0.40954662  0.27520247     0.15100
C1601       C  0.27548036  0.32944210  0.26141797     0.36750
C1602       C  0.38006226  0.46304149  0.24153632     0.36660
N1603       N  0.25863704  0.30104991  0.24460997    -0.43590
N1604       N  0.40495866  0.48471023  0.22573096    -0.43590
C1605       C  0.33519814  0.29715895  0.35416472     0.00000
C1606       C  0.35817038  0.26827347  0.38075177    -0.11870
C1607       C  0.34162723  0.24726757  0.41803285     0.02240
C1608       C  0.30201698  0.25753423  0.43521696    -0.00090
C1609       C  0.27951453  0.28781796  0.41206104    -0.11810
C1610       C  0.29464638  0.30740539  0.37316706     0.02120
H1611       H  0.39071244  0.26237640  0.37295040     0.15100
H1612       H  0.24999625  0.29802875  0.42612734     0.15100
C1613       C  0.26910485  0.34260159  0.36142752     0.36750
C1614       C  0.36643009  0.21493803  0.43794697     0.36660
N1615       N  0.24660040  0.37052512  0.35628457    -0.43590
N1616       N  0.38698455  0.18893774  0.45301630    -0.43590
C1617       C  0.39110220  0.29292227  0.28521225     0.00000
C1618       C  0.41712368  0.31079161  0.25204533    -0.11870
C1619       C  0.45453337  0.29206031  0.23671736     0.02240
C1620       C  0.46594582  0.25128497  0.24982034    -0.00090
C1621       C  0.43520601  0.22897468  0.27394398    -0.11810
C1622       C  0.39733359  0.24841183  0.28892348     0.02120
H1623       H  0.40888230  0.33928570  0.23624688     0.15100
H1624       H  0.43979898  0.19567496  0.27930750     0.15100
C1625       C  0.36306162  0.22055152  0.29994974     0.36750
C1626       C  0.47969165  0.31526719  0.20576684     0.36660
N1627       N  0.33560461  0.19792842  0.30817606    -0.43590
N1628       N  0.49919983  0.33450687  0.18091329    -0.43590
C1629       C  0.68230571  0.37621439  0.65016995     0.00000
C1630       C  0.71967851  0.39315799  0.63054308    -0.11870
C1631       C  0.74263503  0.42788471  0.64874465     0.02240
C1632       C  0.72603175  0.45204834  0.68381336    -0.00090
C1633       C  0.68884826  0.43679438  0.70237490    -0.11810
C1634       C  0.67457476  0.39542974  0.69250328     0.02120
H1635       H  0.73408945  0.37802677  0.60254549     0.15100
H1636       H  0.67639642  0.45325630  0.73087056     0.15100
C1637       C  0.67018015  0.36993841  0.73138501     0.36750
C1638       C  0.78456170  0.43544149  0.63295761     0.36660
N1639       N  0.66684023  0.34964076  0.76260380    -0.43590
N1640       N  0.81862420  0.43970167  0.62064216    -0.43590
C1641       C  0.63452407  0.30864673  0.66792651     0.00000
C1642       C  0.60178458  0.33073958  0.69027907    -0.11870
C1643       C  0.56278897  0.31348201  0.70009199     0.02240
C1644       C  0.55518219  0.27007547  0.69459618    -0.00090
C1645       C  0.58958975  0.24570635  0.67896855    -0.11810
C1646       C  0.62911061  0.26463746  0.66827870     0.02120
H1647       H  0.60277309  0.36451290  0.69279886     0.15100
H1648       H  0.58662493  0.21171453  0.67784498     0.15100
C1649       C  0.66597968  0.23984156  0.66842125     0.36750
C1650       C  0.53122852  0.34363459  0.71251276     0.36660
N1651       N  0.69717663  0.22243023  0.67301547    -0.43590
N1652       N  0.50825593  0.37059565  0.72082255    -0.43590
C1653       C  0.68859521  0.31556856  0.59254241     0.00000
C1654       C  0.72395280  0.29025938  0.59966964    -0.11870
C1655       C  0.75078535  0.27854132  0.56380733     0.02240
C1656       C  0.73662597  0.28159022  0.51870845    -0.00090
C1657       C  0.70545717  0.31183010  0.51298702    -0.11810
C1658       C  0.68692007  0.33242839  0.54869207     0.02120
H1659       H  0.73434601  0.28584386  0.63329434     0.15100
H1660       H  0.69869838  0.32375733  0.48049246     0.15100
C1661       C  0.67497682  0.37526908  0.54019377     0.36750
C1662       C  0.79489691  0.28016233  0.57445239     0.36660
N1663       N  0.66899171  0.41011227  0.53190843    -0.43590
N1664       N  0.82985736  0.28355529  0.58452154    -0.43590
C1665       C  0.63488358  0.51771168  0.63529032     0.00000
C1666       C  0.66133066  0.53256548  0.60146918    -0.11870
C1667       C  0.66513886  0.57555448  0.59253552     0.02240
C1668       C  0.64541351  0.60556457  0.62062997    -0.00090
C1669       C  0.61641881  0.58901808  0.65174744    -0.11810
C1670       C  0.61638943  0.54714572  0.66340990     0.02120
H1671       H  0.67654351  0.51035943  0.57938392     0.15100
H1672       H  0.60018706  0.60913612  0.67469503     0.15100
C1673       C  0.59238516  0.53406715  0.70142994     0.36750
C1674       C  0.69318846  0.58727401  0.55745437     0.36660
N1675       N  0.57318338  0.52364211  0.73172948    -0.43590
N1676       N  0.71629027  0.59550007  0.52945109    -0.43590
C1677       C  0.39335458  0.33536750  0.60341054     0.00000
C1678       C  0.40484181  0.30641329  0.56843297    -0.11870
C1679       C  0.41935319  0.32100398  0.52838588     0.02240
C1680       C  0.42455909  0.36383020  0.52431120    -0.00090
C1681       C  0.42950928  0.38841484  0.56284741    -0.11810
C1682       C  0.41291000  0.37485297  0.60275229     0.02120
H1683       H  0.39620908  0.27355238  0.56905049     0.15100
H1684       H  0.44492613  0.41844186  0.56066640     0.15100
C1685       C  0.41968544  0.39947171  0.64222679     0.36750
C1686       C  0.42832859  0.29262764  0.49227898     0.36660
N1687       N  0.42712401  0.41870310  0.67406614    -0.43590
N1688       N  0.43766825  0.27072081  0.46324972    -0.43590
C1689       C  0.62004440  0.33282652  0.32318618     0.00000
C1690       C  0.60929849  0.33453925  0.36813618    -0.11870
C1691       C  0.57373217  0.35456212  0.38093648     0.02240
C1692       C  0.56247283  0.38848291  0.35543932    -0.00090
C1693       C  0.56200044  0.38171530  0.31053131    -0.11810
C1694       C  0.59495194  0.35816989  0.29356428     0.02120
H1695       H  0.62865928  0.32449102  0.39474832     0.15100
H1696       H  0.54711275  0.40506108  0.28997005     0.15100
C1697       C  0.60785961  0.37199546  0.25046049     0.36750
C1698       C  0.54362370  0.32995963  0.40481054     0.36660
N1699       N  0.61688821  0.38592746  0.21670395    -0.43590
N1700       N  0.52035571  0.30865521  0.42363438    -0.43590
C1701       C  0.49510290  0.63459483  0.39805237     0.00000
C1702       C  0.48812874  0.60480326  0.36373623    -0.11870
C1703       C  0.45260322  0.60781483  0.33574078     0.02240
C1704       C  0.42459668  0.64218686  0.34089413    -0.00090
C1705       C  0.44240745  0.67648288  0.36611570    -0.11810
C1706       C  0.47754943  0.67350220  0.39280867     0.02120
H1707       H  0.50687581  0.57656029  0.36289048     0.15100
H1708       H  0.43216800  0.70779341  0.36444468     0.15100
C1709       C  0.48859183  0.70833116  0.42203987     0.36750
C1710       C  0.44814338  0.57721702  0.30064570     0.36660
N1711       N  0.49669930  0.73637691  0.44542016    -0.43590
N1712       N  0.44532265  0.55302312  0.27193973    -0.43590
C1713       C  0.64350199  0.61701495  0.34191583     0.00000
C1714       C  0.62084776  0.64595458  0.36836713    -0.11870
C1715       C  0.61634599  0.63774108  0.41305142     0.02240
C1716       C  0.63125464  0.59920366  0.42831762    -0.00090
C1717       C  0.63734401  0.56646528  0.39714232    -0.11810
C1718       C  0.63889586  0.57480012  0.35323652     0.02120
H1719       H  0.61140877  0.67611763  0.35585701     0.15100
H1720       H  0.64153523  0.53419954  0.40633100     0.15100
C1721       C  0.63304720  0.54027862  0.32224177     0.36750
C1722       C  0.59624945  0.66792713  0.44158331     0.36660
N1723       N  0.62704203  0.51189419  0.29864570    -0.43590
N1724       N  0.57889514  0.69111222  0.46471782    -0.43590
C1725       C  0.39007068  0.34987043  0.34899655     0.00000
C1726       C  0.36876164  0.38047397  0.37437781    -0.11870
C1727       C  0.37970094  0.42271463  0.37101794     0.02240
C1728       C  0.41686053  0.43385689  0.34807104    -0.00090
C1729       C  0.44527966  0.40070610  0.33822769    -0.11810
C1730       C  0.43257325  0.35865008  0.34095395     0.02120
H1731       H  0.33941931  0.37321407  0.38999606     0.15100
H1732       H  0.47694202  0.40715107  0.32746315     0.15100
C1733       C  0.46313076  0.32577737  0.33677741     0.36750
C1734       C  0.35215246  0.45251244  0.39237345     0.36660
N1735       N  0.48751566  0.29919987  0.33334437    -0.43590
N1736       N  0.33012727  0.47528526  0.41110093    -0.43590
C1737       C  0.53887387  0.34334166  0.56024285     0.00000
C1738       C  0.55767873  0.30442020  0.56244279    -0.11870
C1739       C  0.59846946  0.30232639  0.57941470     0.02240
C1740       C  0.61731924  0.33861755  0.60229695    -0.00090
C1741       C  0.59108876  0.37304085  0.60969632    -0.11810
C1742       C  0.54974449  0.37178084  0.59441063     0.02120
H1743       H  0.54550669  0.27885876  0.54180145     0.15100
H1744       H  0.60103429  0.39801807  0.63181548     0.15100
C1745       C  0.52207473  0.40400571  0.60907309     0.36750
C1746       C  0.61955782  0.26279031  0.57118814     0.36660
N1747       N  0.50208089  0.43095387  0.62337281    -0.43590
N1748       N  0.63602039  0.23110567  0.56399573    -0.43590
C1749       C  0.47027891  0.69473098  0.70258715     0.00000
C1750       C  0.42918402  0.69820317  0.72140400    -0.11870
C1751       C  0.39171892  0.68157516  0.70089578     0.02240
C1752       C  0.39330256  0.65649256  0.66196388    -0.00090
C1753       C  0.43340873  0.65428758  0.64245884    -0.11810
C1754       C  0.47041973  0.66619858  0.66549897     0.02120
H1755       H  0.42516069  0.71169212  0.75368250     0.15100
H1756       H  0.43667779  0.63527926  0.61265775     0.15100
C1757       C  0.50235929  0.63487125  0.66050893     0.36750
C1758       C  0.35170699  0.69501380  0.71727733     0.36660
N1759       N  0.52470019  0.60674810  0.65595051    -0.43590
N1760       N  0.31923797  0.70711416  0.72825730    -0.43590
C1761       C  0.33833991  0.64847514  0.59568088     0.00000
C1762       C  0.35291275  0.68960065  0.58463550    -0.11870
C1763       C  0.34193796  0.71073124  0.54535890     0.02240
C1764       C  0.31214477  0.69324278  0.51526977    -0.00090
C1765       C  0.29654563  0.65378052  0.52497816    -0.11810
C1766       C  0.30877561  0.63111796  0.56240294     0.02120
H1767       H  0.37403914  0.70665891  0.60646946     0.15100
H1768       H  0.27378635  0.64011105  0.50189285     0.15100
C1769       C  0.28646526  0.59120649  0.56175281     0.36750
C1770       C  0.36391374  0.74962628  0.53767801     0.36660
N1771       N  0.26546242  0.56143394  0.55839273    -0.43590
N1772       N  0.38356567  0.78025426  0.53479243    -0.43590
C1773       C  0.31992716  0.61383486  0.67477361     0.00000
C1774       C  0.33155724  0.59540742  0.71545121    -0.11870
C1775       C  0.32199106  0.55238326  0.72430639     0.02240
C1776       C  0.29443196  0.52866576  0.69627755    -0.00090
C1777       C  0.27353505  0.55203191  0.66382984    -0.11810
C1778       C  0.28278311  0.59532153  0.65754941     0.02120
H1779       H  0.35477994  0.61113889  0.73599767     0.15100
H1780       H  0.24746647  0.53751650  0.64610565     0.15100
C1781       C  0.25138235  0.62153332  0.63789881     0.36750
C1782       C  0.34490431  0.53243024  0.75920975     0.36660
N1783       N  0.22670612  0.64146980  0.61971123    -0.43590
N1784       N  0.36461466  0.51692349  0.78657881    -0.43590
C1785       C  0.37756111  0.58374541  0.63401576     0.00000
C1786       C  0.36002336  0.55799666  0.60135298    -0.11870
C1787       C  0.35140254  0.51615063  0.61037190     0.02240
C1788       C  0.38419189  0.49618609  0.63217621    -0.00090
C1789       C  0.39983103  0.51770883  0.66902511    -0.11810
C1790       C  0.40050243  0.56186732  0.66830598     0.02120
H1791       H  0.35682215  0.56905232  0.56827054     0.15100
H1792       H  0.41969956  0.50131949  0.69213185     0.15100
C1793       C  0.42372206  0.58161138  0.70418607     0.36750
C1794       C  0.32275494  0.49358140  0.58151192     0.36660
N1795       N  0.44222504  0.59566109  0.73394494    -0.43590
N1796       N  0.29841335  0.47827357  0.55769401    -0.43590
loop_ 
_geom_bond_atom_site_label_1 
_geom_bond_atom_site_label_2 
_geom_bond_distance 
_geom_bond_site_symmetry_2 
_ccdc_geom_bond_type 
C1         C1752   1.609       .  S
C1         C1761   1.653       .  S
C1         C1773   1.601       .  S
C1         C1785   1.562       .  S
N2            N3   1.317       .  A
N2            N8   1.304       .  A
N2          Mn31   2.189       .  S
N3           C10   1.346       .  A
N4            N6   1.315       .  A
N4            N5   1.312       .  A
N4          Mn20   2.165       .  S
N5           C11   1.343       .  A
N6            N7   1.309       .  A
N6          Mn31   2.183       .  S
N7           C11   1.337       .  A
N8            N9   1.306       .  A
N8          Mn20   2.117       .  S
N9           C10   1.340       .  A
C10        C1680   1.459       .  S
C11        C1728   1.489       .  S
N12          N18   1.316       .  A
N12          N13   1.325       .  A
N12         Mn42   2.215       .  S
N13          C21   1.349       .  A
N14          N15   1.302       .  A
N14          N16   1.303       .  A
N14         Mn20   2.085       .  S
N15          C22   1.345       .  A
N16          N17   1.313       .  A
N16         Mn42   2.169       .  S
N17          C22   1.361       .  A
N18          N19   1.302       .  A
N18         Mn20   2.123       .  S
N19          C21   1.329       .  A
Mn20        Cl44   2.560       .  S
C21        C1701   1.451       .  S
C22        C1788   1.466       .  S
N23          N24   1.308       .  A
N23          N29   1.309       .  A
N23         Mn31   2.205       .  S
N24          C32   1.325       .  A
N25          N27   1.305       .  A
N25          N26   1.302       .  A
N25         Mn43   2.074       .  S
N26          C33   1.332       .  A
N27          N28   1.325       .  A
N27         Mn31   2.245       .  S
N28          C33   1.338       .  A
N29          N30   1.318       .  A
N29         Mn43   2.172       .  S
N30          C32   1.354       .  A
Mn31        Cl44   2.298       .  S
C32        C1692   1.471       .  S
C33        C1737   1.454       .  S
N34          N35   1.303       .  A
N34          N40   1.313       .  A
N34         Mn42   2.184       .  S
N35          C45   1.348       .  A
N36          N37   1.300       .  A
N36          N38   1.310       .  A
N36         Mn43   2.126       .  S
N37          C46   1.340       .  A
N38          N39   1.313       .  A
N38         Mn42   2.190       .  S
N39          C46   1.345       .  A
N40          N41   1.312       .  A
N40         Mn43   2.133       .  S
N41          C45   1.345       .  A
Mn42        Cl44   2.372       .  S
Mn43        Cl44   2.623       .  S
C45        C1665   1.464       .  S
C46        C1716   1.449       .  S
C47        C1629   1.638       .  S
C47        C1641   1.608       .  S
C47        C1653   1.600       .  S
C47        C1740   1.566       .  S
C48        C1593   1.632       .  S
C48        C1605   1.638       .  S
C48        C1617   1.638       .  S
C48        C1725   1.555       .  S
C49        C1557   1.634       .  S
C49        C1569   1.587       .  S
C49        C1581   1.635       .  S
C49        C1713   1.537       .  S
C50        C1521   1.624       .  S
C50        C1533   1.637       .  S
C50        C1545   1.621       .  S
C50        C1704   1.596       .  S
C51        C1485   1.605       .  S
C51        C1497   1.655       .  S
C51        C1509   1.629       .  S
C51        C1689   1.544       .  S
C52        C1452   1.631       .  S
C52        C1461   1.686       .  S
C52        C1473   1.610       .  S
C52        C1677   1.556       .  S
C53        C1413   1.633       .  S
C53        C1425   1.652       .  S
C53        C1437   1.651       .  S
C53        C1668   1.555       .  S
C54          C55   1.382       .  D
C54        C1377   1.520   1_556  S
C54        C1401   1.527       .  S
C55        C1365   1.536       .  S
C55        C1389   1.548   1_556  S
C56          C57   1.378       .  D
C56        C1329   1.541   1_565  S
C56        C1353   1.527       .  S
C57        C1317   1.536       .  S
C57        C1341   1.528   1_565  S
C58          C59   1.404       .  D
C58        C1284   1.553   1_455  S
C58        C1308   1.558       .  S
C59        C1269   1.551       .  S
C59        C1293   1.538   1_455  S
C60          C61   1.400       .  D
C60        C1512   1.549       .  S
C60        C1620   1.540       .  S
C61        C1245   1.555       .  S
C61        C1260   1.574       .  S
C62          C63   1.387       .  D
C62        C1476   1.515       .  S
C62        C1608   1.548       .  S
C63        C1224   1.544       .  S
C63        C1236   1.503       .  S
C64          C65   1.410       .  D
C64        C1548   1.562       .  S
C64        C1596   1.564       .  S
C65        C1197   1.532       .  S
C65        C1212   1.544       .  S
C66          C67   1.391       .  D
C66        C1149   1.527   1_556  S
C66        C1161   1.558       .  S
C67        C1173   1.557   1_556  S
C67        C1185   1.537       .  S
C68          C69   1.394       .  D
C68        C1125   1.555   1_556  S
C68        C1137   1.548       .  S
C69        C1101   1.536   1_556  S
C69        C1116   1.512       .  S
C70          C71   1.424       .  D
C70        C1056   1.581       .  S
C70        C1065   1.586   1_455  S
C71        C1080   1.559   1_455  S
C71        C1092   1.577       .  S
C72          C73   1.408       .  D
C72        C1029   1.555       .  S
C72        C1041   1.524       .  S
C73        C1488   1.575       .  S
C73        C1584   1.546       .  S
C74          C75   1.397       .  D
C74        C1464   1.557       .  S
C74        C1776   1.539       .  S
C75        C1005   1.545       .  S
C75        C1017   1.552       .  S
C76         C957   1.644       .  S
C76         C969   1.630       .  S
C76         C981   1.633       .  S
C76         C993   1.570       .  S
N77          N78   1.309       .  A
N77          N83   1.305       .  A
N77        Mn106   2.042   1_655  S
N78          C85   1.330       .  A
N79          N81   1.294       .  A
N79          N80   1.284       .  A
N79         Mn95   2.087       .  S
N80          C86   1.333       .  A
N81          N82   1.322       .  A
N81        Mn106   2.131       .  S
N82          C86   1.361       .  A
N83          N84   1.291       .  A
N83         Mn95   2.137   1_655  S
N84          C85   1.348       .  A
C85         C996   1.423       .  S
C86         C924   1.455       .  S
N87          N93   1.297   1_554  A
N87          N88   1.293       .  A
N87        Mn117   2.045       .  S
N88          C96   1.338   1_554  A
N89          N90   1.323       .  A
N89          N91   1.310       .  A
N89         Mn95   2.126   1_655  S
N90          C97   1.346       .  A
N91          N92   1.289   1_556  A
N91        Mn117   2.169   1_656  S
N92          C97   1.333   1_554  A
N93          N94   1.319       .  A
N93         Mn95   2.154       .  S
N94          C96   1.352       .  A
Mn95       Cl119   2.400       .  S
C96         C888   1.434   1_556  S
C97         C897   1.442       .  S
N98          N99   1.286       .  A
N98         N104   1.311       .  A
N98        Mn106   2.049       .  S
N99         C107   1.326       .  A
N100        N102   1.305       .  A
N100        N101   1.313       .  A
N100       Mn118   2.087   1_556  S
N101        C108   1.336       .  A
N102        N103   1.293       .  A
N102       Mn106   2.069   1_655  S
N103        C108   1.343       .  A
N104        N105   1.331   1_556  A
N104       Mn118   2.235   1_456  S
N105        C107   1.363   1_554  A
Mn106      Cl119   2.554       .  S
C107        C933   1.442       .  S
C108        C912   1.417       .  S
N109        N110   1.322       .  A
N109        N115   1.311       .  A
N109       Mn117   2.191   1_655  S
N110        C120   1.345       .  A
N111        N112   1.292       .  A
N111        N113   1.296       .  A
N111       Mn118   2.121   1_455  S
N112        C121   1.336       .  A
N113        N114   1.319       .  A
N113       Mn117   2.091       .  S
N114        C121   1.350       .  A
N115        N116   1.302       .  A
N115       Mn118   2.206       .  S
N116        C120   1.334       .  A
Mn117      Cl119   2.515   1_554  S
Mn118      Cl119   2.364   1_654  S
C120        C945   1.465       .  S
C121        C873   1.423       .  S
C122        C948   1.564       .  S
C122       C1044   1.617       .  S
C122       C1128   1.626       .  S
C122       C1296   1.637       .  S
C123        C936   1.586       .  S
C123       C1020   1.614       .  S
C123       C1089   1.640       .  S
C123       C1368   1.615       .  S
C124        C864   1.666       .  S
C124        C921   1.560       .  S
C124       C1008   1.626       .  S
C124       C1164   1.643       .  S
C125        C849   1.636       .  S
C125        C909   1.550       .  S
C125       C1077   1.657       .  S
C125       C1140   1.671       .  S
C126        C828   1.624       .  S
C126        C840   1.650       .  S
C126        C900   1.563       .  S
C126       C1032   1.635       .  S
C127        C128   1.398       .  D
C127       C1428   1.529       .  S
C127       C1632   1.527       .  S
C128        C852   1.568       .  S
C128        C984   1.545       .  S
C129        C813   1.643       .  S
C129        C885   1.557       .  S
C129       C1152   1.635       .  S
C129       C1209   1.632       .  S
C130        C876   1.544       .  S
C130       C1200   1.661       .  S
C130       C1272   1.642       .  S
C130       C1392   1.622       .  S
C131        C132   1.379       .  D
C131        C789   1.542   1_565  S
C131        C804   1.515       .  S
C132        C765   1.561       .  S
C132        C777   1.534   1_565  S
C133        C134   1.397       .  D
C133        C741   1.539       .  S
C133        C753   1.514       .  S
C134       C1524   1.512       .  S
C134       C1572   1.560       .  S
C135        C136   1.381       .  D
C135       C1449   1.509       .  S
C135       C1644   1.531       .  S
C136        C717   1.556       .  S
C136        C729   1.535       .  S
C137        C693   1.632       .  S
C137        C705   1.540       .  S
C137        C732   1.603       .  S
C137       C1113   1.623       .  S
N138        N139   1.292       .  A
N138        N144   1.306       .  A
N138       Mn167   2.100       .  S
N139        C146   1.324       .  A
N140        N142   1.307   1_554  A
N140        N141   1.297       .  A
N140       Mn156   2.215       .  S
N141        C147   1.347       .  A
N142        N143   1.333       .  A
N142       Mn167   2.241       .  S
N143        C147   1.348   1_556  A
N144        N145   1.326       .  A
N144       Mn156   2.244   1_556  S
N145        C146   1.360       .  A
C146        C645   1.469       .  S
C147        C681   1.471       .  S
N148        N154   1.318   1_545  A
N148        N149   1.310       .  A
N148       Mn178   2.134   1_554  S
N149        C157   1.340       .  A
N150        N151   1.325   1_554  A
N150        N152   1.288       .  A
N150       Mn156   2.154   1_545  S
N151        C158   1.363       .  A
N152        N153   1.296   1_554  A
N152       Mn178   2.075   1_554  S
N153        C158   1.335       .  A
N154        N155   1.311       .  A
N154       Mn156   2.244       .  S
N155        C157   1.353   1_565  A
Mn156      Cl180   2.473   1_554  S
C157        C609   1.483       .  S
C158        C708   1.460       .  S
N159        N160   1.303   1_556  A
N159        N165   1.314       .  A
N159       Mn167   2.131       .  S
N160        C168   1.320       .  A
N161        N163   1.323       .  A
N161        N162   1.310       .  A
N161       Mn179   2.241       .  S
N162        C169   1.351       .  A
N163        N164   1.322       .  A
N163       Mn167   2.186       .  S
N164        C169   1.339       .  A
N165        N166   1.329   1_556  A
N165       Mn179   2.232       .  S
N166        C168   1.333       .  A
Mn167      Cl180   2.840       .  S
C168        C636   1.404       .  S
C169        C669   1.464       .  S
N170        N171   1.312       .  A
N170        N176   1.310       .  A
N170       Mn178   2.100       .  S
N171        C181   1.349       .  A
N172        N173   1.333       .  A
N172        N174   1.307       .  A
N172       Mn179   2.217   1_545  S
N173        C182   1.361   1_556  A
N174        N175   1.302   1_556  A
N174       Mn178   2.070       .  S
N175        C182   1.319       .  A
N176        N177   1.302       .  A
N176       Mn179   2.219   1_545  S
N177        C181   1.347       .  A
Mn178      Cl180   2.595   1_545  S
Mn179      Cl180   2.573       .  S
C181        C657   1.478       .  S
C182        C621   1.452       .  S
C183        C585   1.614       .  S
C183        C600   1.633       .  S
C183        C684   1.567       .  S
C183        C756   1.642       .  S
C184        C573   1.613       .  S
C184        C672   1.553       .  S
C184        C801   1.615       .  S
C184       C1188   1.622       .  S
C185        C660   1.551       .  S
C185        C720   1.632       .  S
C185        C792   1.635       .  S
C185       C1404   1.629       .  S
C186        C537   1.626       .  S
C186        C549   1.649       .  S
C186        C561   1.632       .  S
C186        C648   1.565       .  S
C187        C633   1.526       .  S
C187        C744   1.618       .  S
C187       C1176   1.612       .  S
C187       C1320   1.611       .  S
C188        C189   1.433       .  D
C188       C1416   1.547       .  S
C188       C1749   1.612       .  S
C189        C564   1.597       .  S
C189        C576   1.542       .  S
C190        C624   1.571       .  S
C190       C1257   1.657       .  S
C190       C1344   1.598       .  S
C190       C1380   1.573       .  S
C191        C525   1.630       .  S
C191        C612   1.563       .  S
C191       C1104   1.604       .  S
C191       C1248   1.639       .  S
C192        C193   1.395       .  D
C192        C816   1.562       .  S
C192        C837   1.568   1_455  S
C193        C501   1.547       .  S
C193        C513   1.531   1_455  S
C194        C195   1.387       .  D
C194        C528   1.560   1_565  S
C194        C597   1.512       .  S
C195        C477   1.559       .  S
C195        C489   1.527   1_565  S
C196        C197   1.398       .  D
C196       C1500   1.552       .  S
C196       C1656   1.565       .  S
C197        C453   1.530       .  S
C197        C465   1.539       .  S
C198        C199   1.401       .  D
C198        C432   1.599       .  S
C198        C441   1.559       .  S
C199       C1536   1.511       .  S
C199       C1764   1.530       .  S
C200        C417   1.540       .  S
C200        C456   1.644       .  S
C200        C492   1.638       .  S
C200       C1281   1.631       .  S
N201        N202   1.290       .  A
N201        N207   1.305       .  A
N201       Mn230   2.100   1_655  S
N202        C209   1.344       .  A
N203        N205   1.310       .  A
N203        N204   1.324       .  A
N203       Mn219   2.175       .  S
N204        C210   1.356       .  A
N205        N206   1.291       .  A
N205       Mn230   2.123       .  S
N206        C210   1.340       .  A
N207        N208   1.313       .  A
N207       Mn219   2.086   1_655  S
N208        C209   1.337       .  A
C209        C420   1.414       .  S
C210        C345   1.454       .  S
N211        N217   1.311   1_565  A
N211        N212   1.319       .  A
N211       Mn241   2.130   1_455  S
N212        C220   1.345   1_565  A
N213        N214   1.304       .  A
N213        N215   1.302   1_545  A
N213       Mn219   2.104   1_655  S
N214        C221   1.347       .  A
N215        N216   1.307       .  A
N215       Mn241   2.113       .  S
N216        C221   1.348   1_565  A
N217        N218   1.287       .  A
N217       Mn219   2.095       .  S
N218        C220   1.330       .  A
Mn219      Cl243   2.454   1_545  S
C220        C333   1.434       .  S
C221        C372   1.445       .  S
N222        N223   1.315       .  A
N222        N228   1.304       .  A
N222       Mn230   2.123   1_565  S
N223        C231   1.347       .  A
N224        N226   1.305       .  A
N224        N225   1.291       .  A
N224       Mn242   2.094   1_655  S
N225        C232   1.336       .  A
N226        N227   1.323   1_565  A
N226       Mn230   2.147   1_665  S
N227        C232   1.353   1_545  A
N228        N229   1.293       .  A
N228       Mn242   2.113       .  S
N229        C231   1.339       .  A
Mn230      Cl243   2.502   1_545  S
C231        C396   1.420       .  S
C232        C408   1.431       .  S
N233        N234   1.290       .  A
N233        N239   1.299       .  A
N233       Mn241   2.108       .  S
N234        C244   1.329       .  A
N235        N236   1.308       .  A
N235        N237   1.312       .  A
N235       Mn242   2.110       .  S
N236        C245   1.328       .  A
N237        N238   1.301       .  A
N237       Mn241   2.110   1_455  S
N238        C245   1.337       .  A
N239        N240   1.319       .  A
N239       Mn242   2.100   1_655  S
N240        C244   1.341       .  A
Mn241      Cl243   2.535   1_655  S
Mn242      Cl243   2.448       .  S
C244        C360   1.442       .  S
C245        C381   1.450       .  S
C246        C321   1.613       .  S
C246        C405   1.584       .  S
C246        C480   1.616       .  S
C246        C516   1.622       .  S
C247        C393   1.551       .  S
C247        C429   1.618       .  S
C247        C504   1.645       .  S
C247       C1356   1.652       .  S
C248        C309   1.638       .  S
C248        C384   1.538       .  S
C248        C444   1.632       .  S
C248        C768   1.656       .  S
C249        C300   1.633       .  S
C249        C369   1.562       .  S
C249        C468   1.612       .  S
C249       C1068   1.646       .  S
C250        C261   1.639       .  S
C250        C273   1.627       .  S
C250        C285   1.666       .  S
C250        C357   1.543       .  S
C251        C252   1.403       .  D
C251       C1440   1.573       .  S
C251       C1560   1.550       .  S
C252        C288   1.551       .  S
C252        C324   1.573       .  S
C253        C348   1.592       .  S
C253       C1233   1.601       .  S
C253       C1305   1.653       .  S
C253       C1332   1.640       .  S
C254        C336   1.550       .  S
C254        C780   1.661       .  S
C254       C1053   1.619       .  S
C254       C1221   1.647       .  S
C255        C256   1.431       .  D
C255        C861   1.567       .  S
C255        C972   1.564   1_455  S
C256        C264   1.587   1_455  S
C256        C312   1.592       .  S
C257        C258   1.391       .  D
C257        C276   1.581       .  S
C257        C297   1.542   1_565  S
C258        C540   1.535       .  S
C258        C696   1.565   1_565  S
C259        C260   1.395       .  D
C259        C825   1.584   1_556  S
C259        C960   1.551       .  S
C260        C552   1.551       .  S
C260        C588   1.514   1_556  S
C261        C262   1.415       .  A
C261        C266   1.454       .  A
C262        C263   1.426       .  A
C262        H267   1.083       .  S
C263        C264   1.425       .  A
C263        C270   1.440       .  S
C264        C265   1.411       .  A
C265        C266   1.437       .  A
C265        H268   1.084   1_655  S
C266        C269   1.435       .  S
C269        N271   1.153       .  T
C270        N272   1.158       .  T
C273        C274   1.431       .  A
C273        C278   1.407       .  A
C274        C275   1.428       .  A
C274        H279   1.064       .  S
C275        C276   1.416       .  A
C275        C282   1.440       .  S
C276        C277   1.428       .  A
C277        C278   1.433       .  A
C277        H280   1.072       .  S
C278        C281   1.445       .  S
C281        N283   1.158       .  T
C282        N284   1.157       .  T
C285        C286   1.445       .  A
C285        C290   1.471       .  A
C286        C287   1.430       .  A
C286        H291   1.070       .  S
C287        C288   1.408       .  A
C287        C294   1.444       .  S
C288        C289   1.397       .  A
C289        C290   1.428       .  A
C289        H292   1.086       .  S
C290        C293   1.441       .  S
C293        N295   1.158       .  T
C294        N296   1.157       .  T
C297        C298   1.417       .  A
C297        C302   1.404       .  A
C298        C299   1.434       .  A
C298        H303   1.082       .  S
C299        C300   1.429       .  A
C299        C306   1.431       .  S
C300        C301   1.447       .  A
C301        C302   1.415       .  A
C301        H304   1.077       .  S
C302        C305   1.445       .  S
C305        N307   1.157       .  T
C306        N308   1.153       .  T
C309        C310   1.432       .  A
C309        C314   1.426       .  A
C310        C311   1.426       .  A
C310        H315   1.082       .  S
C311        C312   1.421       .  A
C311        C318   1.437       .  S
C312        C313   1.432       .  A
C313        C314   1.444       .  A
C313        H316   1.080       .  S
C314        C317   1.439       .  S
C317        N319   1.156       .  T
C318        N320   1.156       .  T
C321        C322   1.425       .  A
C321        C326   1.414       .  A
C322        C323   1.440       .  A
C322        H327   1.083       .  S
C323        C324   1.430       .  A
C323        C330   1.439       .  S
C324        C325   1.401       .  A
C325        C326   1.420       .  A
C325        H328   1.068       .  S
C326        C329   1.433       .  S
C329        N331   1.158       .  T
C330        N332   1.158       .  T
C333        C334   1.384       .  A
C333        C338   1.417       .  A
C334        C335   1.396       .  A
C334        H339   1.088       .  S
C335        C336   1.442       .  A
C335        C342   1.445       .  S
C336        C337   1.410       .  A
C337        C338   1.400       .  A
C337        H340   1.080       .  S
C338        C341   1.441       .  S
C341        N343   1.157   1_545  T
C342        N344   1.157       .  T
C345        C346   1.394       .  A
C345        C350   1.392       .  A
C346        C347   1.411       .  A
C346        H351   1.087       .  S
C347        C348   1.438       .  A
C347        C354   1.442       .  S
C348        C349   1.436       .  A
C349        C350   1.404       .  A
C349        H352   1.067       .  S
C350        C353   1.444       .  S
C353        N355   1.157       .  T
C354        N356   1.155       .  T
C357        C358   1.436       .  A
C357        C362   1.432       .  A
C358        C359   1.402       .  A
C358        H363   1.077       .  S
C359        C360   1.392       .  A
C359        C366   1.439       .  S
C360        C361   1.404       .  A
C361        C362   1.394       .  A
C361        H364   1.078       .  S
C362        C365   1.439       .  S
C365        N367   1.154       .  T
C366        N368   1.157       .  T
C369        C370   1.442       .  A
C369        C374   1.442       .  A
C370        C371   1.402       .  A
C370        H375   1.077       .  S
C371        C372   1.391       .  A
C371        C378   1.437       .  S
C372        C373   1.384       .  A
C373        C374   1.396       .  A
C373        H376   1.081   1_545  S
C374        C377   1.446       .  S
C377        N379   1.158       .  T
C378        N380   1.156       .  T
C381        C382   1.375       .  A
C381        C386   1.374       .  A
C382        C383   1.378       .  A
C382        H387   1.059       .  S
C383        C384   1.420       .  A
C383        C390   1.447       .  S
C384        C385   1.427       .  A
C385        C386   1.384       .  A
C385        H388   1.062       .  S
C386        C389   1.423       .  S
C389        N391   1.149       .  T
C390        N392   1.158       .  T
C393        C394   1.411       .  A
C393        C398   1.445       .  A
C394        C395   1.393       .  A
C394        H399   1.080       .  S
C395        C396   1.404       .  A
C395        C402   1.441       .  S
C396        C397   1.382       .  A
C397        C398   1.386       .  A
C397        H400   1.085       .  S
C398        C401   1.447       .  S
C401        N403   1.157       .  T
C402        N404   1.155       .  T
C405        C406   1.428       .  A
C405        C410   1.456       .  A
C406        C407   1.398       .  A
C406        H411   1.079       .  S
C407        C408   1.393       .  A
C407        C414   1.440       .  S
C408        C409   1.387       .  A
C409        C410   1.402       .  A
C409        H412   1.087       .  S
C410        C413   1.447       .  S
C413        N415   1.158       .  T
C414        N416   1.157       .  T
C417        C418   1.414       .  A
C417        C422   1.434       .  A
C418        C419   1.391       .  A
C418        H423   1.071       .  S
C419        C420   1.394       .  A
C419        C426   1.447       .  S
C420        C421   1.387       .  A
C421        C422   1.390       .  A
C421        H424   1.086       .  S
C422        C425   1.442       .  S
C425        N427   1.157       .  T
C426        N428   1.157   1_655  T
C429        C430   1.430       .  A
C429        C434   1.396       .  A
C430        C431   1.429       .  A
C430        H435   1.082       .  S
C431        C432   1.424       .  A
C431        C438   1.440       .  S
C432        C433   1.439       .  A
C433        C434   1.427       .  A
C433        H436   1.053       .  S
C434        C437   1.444       .  S
C437        N439   1.157       .  T
C438        N440   1.158       .  T
C441        C442   1.417       .  A
C441        C446   1.414       .  A
C442        C443   1.439       .  A
C442        H447   1.084       .  S
C443        C444   1.443       .  A
C443        C450   1.436       .  S
C444        C445   1.421       .  A
C445        C446   1.428       .  A
C445        H448   1.074       .  S
C446        C449   1.441       .  S
C449        N451   1.157       .  T
C450        N452   1.156       .  T
C453        C454   1.386       .  A
C453        C458   1.416       .  A
C454        C455   1.406       .  A
C454        H459   1.080       .  S
C455        C456   1.468       .  A
C455        C462   1.444       .  S
C456        C457   1.401       .  A
C457        C458   1.426       .  A
C457        H460   1.070       .  S
C458        C461   1.440       .  S
C461        N463   1.157       .  T
C462        N464   1.158       .  T
C465        C466   1.406       .  A
C465        C470   1.425       .  A
C466        C467   1.419       .  A
C466        H471   1.086       .  S
C467        C468   1.439       .  A
C467        C474   1.434       .  S
C468        C469   1.421       .  A
C469        C470   1.416       .  A
C469        H472   1.084       .  S
C470        C473   1.439       .  S
C473        N475   1.158       .  T
C474        N476   1.157       .  T
C477        C478   1.419       .  A
C477        C482   1.416       .  A
C478        C479   1.433       .  A
C478        H483   1.083       .  S
C479        C480   1.429       .  A
C479        C486   1.438       .  S
C480        C481   1.437       .  A
C481        C482   1.421       .  A
C481        H484   1.074       .  S
C482        C485   1.440       .  S
C485        N487   1.157       .  T
C486        N488   1.156       .  T
C489        C490   1.392       .  A
C489        C494   1.405       .  A
C490        C491   1.416       .  A
C490        H495   1.081       .  S
C491        C492   1.457       .  A
C491        C498   1.429       .  S
C492        C493   1.430       .  A
C493        C494   1.413       .  A
C493        H496   1.083       .  S
C494        C497   1.435       .  S
C497        N499   1.156       .  T
C498        N500   1.158       .  T
C501        C502   1.404       .  A
C501        C506   1.413       .  A
C502        C503   1.422       .  A
C502        H507   1.084       .  S
C503        C504   1.441       .  A
C503        C510   1.443       .  S
C504        C505   1.432       .  A
C505        C506   1.424       .  A
C505        H508   1.072       .  S
C506        C509   1.443       .  S
C509        N511   1.157       .  T
C510        N512   1.157       .  T
C513        C514   1.392       .  A
C513        C518   1.421       .  A
C514        C515   1.407       .  A
C514        H519   1.083       .  S
C515        C516   1.443       .  A
C515        C522   1.438       .  S
C516        C517   1.420       .  A
C517        C518   1.424       .  A
C517        H520   1.079       .  S
C518        C521   1.442       .  S
C521        N523   1.157       .  T
C522        N524   1.158       .  T
C525        C526   1.425       .  A
C525        C530   1.432       .  A
C526        C527   1.412       .  A
C526        H531   1.078       .  S
C527        C528   1.425       .  A
C527        C534   1.440       .  S
C528        C529   1.417       .  A
C529        C530   1.436       .  A
C529        H532   1.084       .  S
C530        C533   1.437       .  S
C533        N535   1.156       .  T
C534        N536   1.158       .  T
C537        C538   1.422       .  A
C537        C542   1.447       .  A
C538        C539   1.430       .  A
C538        H543   1.079       .  S
C539        C540   1.423       .  A
C539        C546   1.441       .  S
C540        C541   1.391       .  A
C541        C542   1.409       .  A
C541        H544   1.072       .  S
C542        C545   1.435       .  S
C545        N547   1.156       .  T
C546        N548   1.157       .  T
C549        C550   1.436       .  A
C549        C554   1.434       .  A
C550        C551   1.426       .  A
C550        H555   1.075       .  S
C551        C552   1.407       .  A
C551        C558   1.443       .  S
C552        C553   1.407       .  A
C553        C554   1.424       .  A
C553        H556   1.082       .  S
C554        C557   1.427       .  S
C557        N559   1.152       .  T
C558        N560   1.157       .  T
C561        C562   1.417       .  A
C561        C566   1.434       .  A
C562        C563   1.437       .  A
C562        H567   1.080       .  S
C563        C564   1.430       .  A
C563        C570   1.442       .  S
C564        C565   1.421       .  A
C565        C566   1.428       .  A
C565        H568   1.069       .  S
C566        C569   1.443       .  S
C569        N571   1.156       .  T
C570        N572   1.158       .  T
C573        C574   1.425       .  A
C573        C578   1.433       .  A
C574        C575   1.416       .  A
C574        H579   1.082       .  S
C575        C576   1.420       .  A
C575        C582   1.444       .  S
C576        C577   1.414       .  A
C577        C578   1.425       .  A
C577        H580   1.084       .  S
C578        C581   1.446       .  S
C581        N583   1.158       .  T
C582        N584   1.157       .  T
C585        C586   1.417       .  A
C585        C590   1.461       .  A
C586        C587   1.429       .  A
C586        H591   1.080       .  S
C587        C588   1.423       .  A
C587        C594   1.440       .  S
C588        C589   1.384       .  A
C589        C590   1.394       .  A
C589        H592   1.086   1_554  S
C590        C593   1.446       .  S
C593        N595   1.156       .  T
C594        N596   1.156       .  T
C597        C598   1.373       .  A
C597        C602   1.401       .  A
C598        C599   1.394       .  A
C598        H603   1.074       .  S
C599        C600   1.475       .  A
C599        C606   1.443       .  S
C600        C601   1.440       .  A
C601        C602   1.419       .  A
C601        H604   1.066       .  S
C602        C605   1.442       .  S
C605        N607   1.157       .  T
C606        N608   1.160       .  T
C609        C610   1.405       .  A
C609        C614   1.433       .  A
C610        C611   1.384       .  A
C610        H615   1.086       .  S
C611        C612   1.405       .  A
C611        C618   1.438       .  S
C612        C613   1.390       .  A
C613        C614   1.394       .  A
C613        H616   1.080       .  S
C614        C617   1.443       .  S
C617        N619   1.155       .  T
C618        N620   1.156       .  T
C621        C622   1.378       .  A
C621        C626   1.427       .  A
C622        C623   1.393       .  A
C622        H627   1.084   1_554  S
C623        C624   1.451       .  A
C623        C630   1.435       .  S
C624        C625   1.383       .  A
C625        C626   1.377       .  A
C625        H628   1.079       .  S
C626        C629   1.432       .  S
C629        N631   1.156   1_545  T
C630        N632   1.156       .  T
C633        C634   1.405       .  A
C633        C638   1.435       .  A
C634        C635   1.355       .  A
C634        H639   1.071       .  S
C635        C636   1.396       .  A
C635        C642   1.440       .  S
C636        C637   1.383       .  A
C637        C638   1.371       .  A
C637        H640   1.083       .  S
C638        C641   1.444       .  S
C641        N643   1.157       .  T
C642        N644   1.154       .  T
C645        C646   1.387       .  A
C645        C650   1.410       .  A
C646        C647   1.401       .  A
C646        H651   1.086       .  S
C647        C648   1.430       .  A
C647        C654   1.434       .  S
C648        C649   1.424       .  A
C649        C650   1.390       .  A
C649        H652   1.082       .  S
C650        C653   1.445       .  S
C653        N655   1.157       .  T
C654        N656   1.154       .  T
C657        C658   1.423       .  A
C657        C662   1.409       .  A
C658        C659   1.398       .  A
C658        H663   1.084       .  S
C659        C660   1.406       .  A
C659        C666   1.436       .  S
C660        C661   1.424       .  A
C661        C662   1.373       .  A
C661        H664   1.079       .  S
C662        C665   1.449       .  S
C665        N667   1.158       .  T
C666        N668   1.155       .  T
C669        C670   1.390       .  A
C669        C674   1.371       .  A
C670        C671   1.397       .  A
C670        H675   1.087       .  S
C671        C672   1.430       .  A
C671        C678   1.452       .  S
C672        C673   1.440       .  A
C673        C674   1.384       .  A
C673        H676   1.077       .  S
C674        C677   1.433       .  S
C677        N679   1.155       .  T
C678        N680   1.158       .  T
C681        C682   1.414       .  A
C681        C686   1.352       .  A
C682        C683   1.405       .  A
C682        H687   1.081       .  S
C683        C684   1.420       .  A
C683        C690   1.437       .  S
C684        C685   1.466       .  A
C685        C686   1.373       .  A
C685        H688   1.071       .  S
C686        C689   1.439       .  S
C689        N691   1.157   1_554  T
C690        N692   1.158       .  T
C693        C694   1.425       .  A
C693        C698   1.412       .  A
C694        C695   1.427       .  A
C694        H699   1.072       .  S
C695        C696   1.427       .  A
C695        C702   1.439       .  S
C696        C697   1.416       .  A
C697        C698   1.425       .  A
C697        H700   1.079       .  S
C698        C701   1.441       .  S
C701        N703   1.156       .  T
C702        N704   1.158       .  T
C705        C706   1.407       .  A
C705        C710   1.377       .  A
C706        C707   1.389       .  A
C706        H711   1.082       .  S
C707        C708   1.419       .  A
C707        C714   1.447       .  S
C708        C709   1.408       .  A
C709        C710   1.397       .  A
C709        H712   1.076       .  S
C710        C713   1.416       .  S
C713        N715   1.153       .  T
C714        N716   1.157       .  T
C717        C718   1.428       .  A
C717        C722   1.405       .  A
C718        C719   1.433       .  A
C718        H723   1.075       .  S
C719        C720   1.407       .  A
C719        C726   1.438       .  S
C720        C721   1.441       .  A
C721        C722   1.408       .  A
C721        H724   1.081       .  S
C722        C725   1.444       .  S
C725        N727   1.157       .  T
C726        N728   1.157       .  T
C729        C730   1.423       .  A
C729        C734   1.394       .  A
C730        C731   1.425       .  A
C730        H735   1.082       .  S
C731        C732   1.422       .  A
C731        C738   1.446       .  S
C732        C733   1.428       .  A
C733        C734   1.401       .  A
C733        H736   1.068       .  S
C734        C737   1.441       .  S
C737        N739   1.157       .  T
C738        N740   1.158       .  T
C741        C742   1.397       .  A
C741        C746   1.415       .  A
C742        C743   1.417       .  A
C742        H747   1.085       .  S
C743        C744   1.451       .  A
C743        C750   1.439       .  S
C744        C745   1.420       .  A
C745        C746   1.425       .  A
C745        H748   1.078       .  S
C746        C749   1.440       .  S
C749        N751   1.158       .  T
C750        N752   1.158       .  T
C753        C754   1.406       .  A
C753        C758   1.406       .  A
C754        C755   1.420       .  A
C754        H759   1.084       .  S
C755        C756   1.413       .  A
C755        C762   1.446       .  S
C756        C757   1.437       .  A
C757        C758   1.413       .  A
C757        H760   1.071       .  S
C758        C761   1.445       .  S
C761        N763   1.157       .  T
C762        N764   1.156       .  T
C765        C766   1.394       .  A
C765        C770   1.420       .  A
C766        C767   1.414       .  A
C766        H771   1.082       .  S
C767        C768   1.464       .  A
C767        C774   1.444       .  S
C768        C769   1.437       .  A
C769        C770   1.441       .  A
C769        H772   1.075       .  S
C770        C773   1.442       .  S
C773        N775   1.157       .  T
C774        N776   1.157       .  T
C777        C778   1.414       .  A
C777        C782   1.396       .  A
C778        C779   1.438       .  A
C778        H783   1.085       .  S
C779        C780   1.454       .  A
C779        C786   1.434       .  S
C780        C781   1.448       .  A
C781        C782   1.404       .  A
C781        H784   1.071       .  S
C782        C785   1.446       .  S
C785        N787   1.157   1_545  T
C786        N788   1.157       .  T
C789        C790   1.391       .  A
C789        C794   1.424       .  A
C790        C791   1.412       .  A
C790        H795   1.086       .  S
C791        C792   1.460       .  A
C791        C798   1.445       .  S
C792        C793   1.419       .  A
C793        C794   1.425       .  A
C793        H796   1.064       .  S
C794        C797   1.440       .  S
C797        N799   1.157       .  T
C798        N800   1.155       .  T
C801        C802   1.428       .  A
C801        C806   1.417       .  A
C802        C803   1.407       .  A
C802        H807   1.072       .  S
C803        C804   1.401       .  A
C803        C810   1.443       .  S
C804        C805   1.408       .  A
C805        C806   1.414       .  A
C805        H808   1.080       .  S
C806        C809   1.442       .  S
C809        N811   1.157       .  T
C810        N812   1.157       .  T
C813        C814   1.439       .  A
C813        C818   1.454       .  A
C814        C815   1.432       .  A
C814        H819   1.081       .  S
C815        C816   1.409       .  A
C815        C822   1.441       .  S
C816        C817   1.401       .  A
C817        C818   1.425       .  A
C817        H820   1.084       .  S
C818        C821   1.437       .  S
C821        N823   1.158       .  T
C822        N824   1.157       .  T
C825        C826   1.401       .  A
C825        C830   1.435       .  A
C826        C827   1.412       .  A
C826        H831   1.071   1_554  S
C827        C828   1.471       .  A
C827        C834   1.448       .  S
C828        C829   1.410       .  A
C829        C830   1.429       .  A
C829        H832   1.083       .  S
C830        C833   1.445       .  S
C833        N835   1.156       .  T
C834        N836   1.158       .  T
C837        C838   1.380       .  A
C837        C842   1.445       .  A
C838        C839   1.399       .  A
C838        H843   1.087       .  S
C839        C840   1.454       .  A
C839        C846   1.426       .  S
C840        C841   1.428       .  A
C841        C842   1.457       .  A
C841        H844   1.083       .  S
C842        C845   1.439       .  S
C845        N847   1.157       .  T
C846        N848   1.152       .  T
C849        C850   1.420       .  A
C849        C854   1.451       .  A
C850        C851   1.432       .  A
C850        H855   1.081       .  S
C851        C852   1.420       .  A
C851        C858   1.439       .  S
C852        C853   1.408       .  A
C853        C854   1.428       .  A
C853        H856   1.078       .  S
C854        C857   1.444       .  S
C857        N859   1.157       .  T
C858        N860   1.158       .  T
C861        C862   1.412       .  A
C861        C866   1.415       .  A
C862        C863   1.426       .  A
C862        H867   1.073       .  S
C863        C864   1.439       .  A
C863        C870   1.443       .  S
C864        C865   1.438       .  A
C865        C866   1.433       .  A
C865        H868   1.064       .  S
C866        C869   1.443       .  S
C869        N871   1.157       .  T
C870        N872   1.156       .  T
C873        C874   1.397       .  A
C873        C878   1.416       .  A
C874        C875   1.387       .  A
C874        H879   1.089       .  S
C875        C876   1.411       .  A
C875        C882   1.438       .  S
C876        C877   1.414       .  A
C877        C878   1.387       .  A
C877        H880   1.084       .  S
C878        C881   1.442       .  S
C881        N883   1.156       .  T
C882        N884   1.156       .  T
C885        C886   1.419       .  A
C885        C890   1.425       .  A
C886        C887   1.406       .  A
C886        H891   1.077       .  S
C887        C888   1.402       .  A
C887        C894   1.440       .  S
C888        C889   1.403       .  A
C889        C890   1.398       .  A
C889        H892   1.086   1_554  S
C890        C893   1.442       .  S
C893        N895   1.158       .  T
C894        N896   1.157       .  T
C897        C898   1.379       .  A
C897        C902   1.420   1_556  A
C898        C899   1.393   1_556  A
C898        H903   1.086       .  S
C899        C900   1.455       .  A
C899        C906   1.447       .  S
C900        C901   1.409       .  A
C901        C902   1.415       .  A
C901        H904   1.082       .  S
C902        C905   1.442   1_554  S
C905        N907   1.157       .  T
C906        N908   1.157       .  T
C909        C910   1.424       .  A
C909        C914   1.447       .  A
C910        C911   1.398       .  A
C910        H915   1.068       .  S
C911        C912   1.388       .  A
C911        C918   1.442       .  S
C912        C913   1.385       .  A
C913        C914   1.393       .  A
C913        H916   1.087       .  S
C914        C917   1.445       .  S
C917        N919   1.157       .  T
C918        N920   1.157       .  T
C921        C922   1.422       .  A
C921        C926   1.427       .  A
C922        C923   1.397       .  A
C922        H927   1.079       .  S
C923        C924   1.421       .  A
C923        C930   1.448       .  S
C924        C925   1.400       .  A
C925        C926   1.404       .  A
C925        H928   1.085       .  S
C926        C929   1.430       .  S
C929        N931   1.151       .  T
C930        N932   1.158       .  T
C933        C934   1.408       .  A
C933        C938   1.400       .  A
C934        C935   1.417       .  A
C934        H939   1.083       .  S
C935        C936   1.431       .  A
C935        C942   1.439       .  S
C936        C937   1.431       .  A
C937        C938   1.385       .  A
C937        H940   1.078       .  S
C938        C941   1.450       .  S
C941        N943   1.157       .  T
C942        N944   1.156       .  T
C945        C946   1.414       .  A
C945        C950   1.361       .  A
C946        C947   1.392       .  A
C946        H951   1.067       .  S
C947        C948   1.414       .  A
C947        C954   1.442       .  S
C948        C949   1.441       .  A
C949        C950   1.379       .  A
C949        H952   1.055       .  S
C950        C953   1.442       .  S
C953        N955   1.157       .  T
C954        N956   1.157       .  T
C957        C958   1.429       .  A
C957        C962   1.436       .  A
C958        C959   1.417       .  A
C958        H963   1.070       .  S
C959        C960   1.410       .  A
C959        C966   1.446       .  S
C960        C961   1.415       .  A
C961        C962   1.427       .  A
C961        H964   1.083       .  S
C962        C965   1.444       .  S
C965        N967   1.158       .  T
C966        N968   1.157       .  T
C969        C970   1.418       .  A
C969        C974   1.449       .  A
C970        C971   1.425       .  A
C970        H975   1.076       .  S
C971        C972   1.413       .  A
C971        C978   1.442       .  S
C972        C973   1.413       .  A
C973        C974   1.431       .  A
C973        H976   1.080       .  S
C974        C977   1.442       .  S
C977        N979   1.156       .  T
C978        N980   1.157       .  T
C981        C982   1.439       .  A
C981        C986   1.410       .  A
C982        C983   1.422       .  A
C982        H987   1.074       .  S
C983        C984   1.411       .  A
C983        C990   1.444       .  S
C984        C985   1.417       .  A
C985        C986   1.426       .  A
C985        H988   1.082       .  S
C986        C989   1.436       .  S
C989        N991   1.154       .  T
C990        N992   1.157       .  T
C993        C994   1.432       .  A
C993        C998   1.442       .  A
C994        C995   1.391       .  A
C994        H999   1.073       .  S
C995        C996   1.378       .  A
C995       C1002   1.448       .  S
C996        C997   1.384       .  A
C997        C998   1.399       .  A
C997       H1000   1.086       .  S
C998       C1001   1.436       .  S
C1001      N1003   1.158       .  T
C1002      N1004   1.157       .  T
C1005      C1006   1.429       .  A
C1005      C1010   1.406       .  A
C1006      C1007   1.432       .  A
C1006      H1011   1.080       .  S
C1007      C1008   1.393       .  A
C1007      C1014   1.438       .  S
C1008      C1009   1.435       .  A
C1009      C1010   1.410       .  A
C1009      H1012   1.077       .  S
C1010      C1013   1.446       .  S
C1013      N1015   1.157       .  T
C1014      N1016   1.157       .  T
C1017      C1018   1.408       .  A
C1017      C1022   1.413       .  A
C1018      C1019   1.417       .  A
C1018      H1023   1.073       .  S
C1019      C1020   1.434       .  A
C1019      C1026   1.445       .  S
C1020      C1021   1.426       .  A
C1021      C1022   1.433       .  A
C1021      H1024   1.083       .  S
C1022      C1025   1.440       .  S
C1025      N1027   1.158       .  T
C1026      N1028   1.158       .  T
C1029      C1030   1.415       .  A
C1029      C1034   1.403       .  A
C1030      C1031   1.442       .  A
C1030      H1035   1.078       .  S
C1031      C1032   1.439       .  A
C1031      C1038   1.438       .  S
C1032      C1033   1.431       .  A
C1033      C1034   1.411       .  A
C1033      H1036   1.077       .  S
C1034      C1037   1.440       .  S
C1037      N1039   1.157       .  T
C1038      N1040   1.157       .  T
C1041      C1042   1.395       .  A
C1041      C1046   1.427       .  A
C1042      C1043   1.401       .  A
C1042      H1047   1.084       .  S
C1043      C1044   1.420       .  A
C1043      C1050   1.432       .  S
C1044      C1045   1.424       .  A
C1045      C1046   1.436       .  A
C1045      H1048   1.068       .  S
C1046      C1049   1.441       .  S
C1049      N1051   1.157       .  T
C1050      N1052   1.152       .  T
C1053      C1054   1.434       .  A
C1053      C1058   1.411       .  A
C1054      C1055   1.415       .  A
C1054      H1059   1.085       .  S
C1055      C1056   1.419       .  A
C1055      C1062   1.444       .  S
C1056      C1057   1.434       .  A
C1057      C1058   1.441       .  A
C1057      H1060   1.077       .  S
C1058      C1061   1.441       .  S
C1061      N1063   1.158       .  T
C1062      N1064   1.158       .  T
C1065      C1066   1.405       .  A
C1065      C1070   1.436       .  A
C1066      C1067   1.421       .  A
C1066      H1071   1.084       .  S
C1067      C1068   1.440       .  A
C1067      C1074   1.431       .  S
C1068      C1069   1.428       .  A
C1069      C1070   1.442       .  A
C1069      H1072   1.083       .  S
C1070      C1073   1.439       .  S
C1073      N1075   1.157       .  T
C1074      N1076   1.152       .  T
C1077      C1078   1.412       .  A
C1077      C1082   1.435       .  A
C1078      C1079   1.432       .  A
C1078      H1083   1.069       .  S
C1079      C1080   1.417       .  A
C1079      C1086   1.442       .  S
C1080      C1081   1.408       .  A
C1081      C1082   1.430       .  A
C1081      H1084   1.084       .  S
C1082      C1085   1.446       .  S
C1085      N1087   1.158       .  T
C1086      N1088   1.158       .  T
C1089      C1090   1.428       .  A
C1089      C1094   1.436       .  A
C1090      C1091   1.412       .  A
C1090      H1095   1.078       .  S
C1091      C1092   1.417       .  A
C1091      C1098   1.437       .  S
C1092      C1093   1.428       .  A
C1093      C1094   1.444       .  A
C1093      H1096   1.083       .  S
C1094      C1097   1.439       .  S
C1097      N1099   1.157       .  T
C1098      N1100   1.155   1_455  T
C1101      C1102   1.403       .  A
C1101      C1106   1.410       .  A
C1102      C1103   1.408       .  A
C1102      H1107   1.078   1_554  S
C1103      C1104   1.434       .  A
C1103      C1110   1.439       .  S
C1104      C1105   1.427       .  A
C1105      C1106   1.426       .  A
C1105      H1108   1.081       .  S
C1106      C1109   1.439       .  S
C1109      N1111   1.157       .  T
C1110      N1112   1.156       .  T
C1113      C1114   1.437       .  A
C1113      C1118   1.460       .  A
C1114      C1115   1.410       .  A
C1114      H1119   1.068       .  S
C1115      C1116   1.399       .  A
C1115      C1122   1.443       .  S
C1116      C1117   1.388       .  A
C1117      C1118   1.400       .  A
C1117      H1120   1.085       .  S
C1118      C1121   1.445       .  S
C1121      N1123   1.158       .  T
C1122      N1124   1.157       .  T
C1125      C1126   1.401       .  A
C1125      C1130   1.420       .  A
C1126      C1127   1.426       .  A
C1126      H1131   1.079   1_554  S
C1127      C1128   1.447       .  A
C1127      C1134   1.438       .  S
C1128      C1129   1.422       .  A
C1129      C1130   1.428       .  A
C1129      H1132   1.083       .  S
C1130      C1133   1.440       .  S
C1133      N1135   1.158       .  T
C1134      N1136   1.155       .  T
C1137      C1138   1.384       .  A
C1137      C1142   1.413       .  A
C1138      C1139   1.418       .  A
C1138      H1143   1.088       .  S
C1139      C1140   1.473       .  A
C1139      C1146   1.432       .  S
C1140      C1141   1.449       .  A
C1141      C1142   1.437       .  A
C1141      H1144   1.070       .  S
C1142      C1145   1.442       .  S
C1145      N1147   1.157       .  T
C1146      N1148   1.158       .  T
C1149      C1150   1.427       .  A
C1149      C1154   1.399       .  A
C1150      C1151   1.437       .  A
C1150      H1155   1.083       .  S
C1151      C1152   1.404       .  A
C1151      C1158   1.438       .  S
C1152      C1153   1.434       .  A
C1153      C1154   1.399       .  A
C1153      H1156   1.070       .  S
C1154      C1157   1.447       .  S
C1157      N1159   1.158   1_554  T
C1158      N1160   1.157       .  T
C1161      C1162   1.407       .  A
C1161      C1166   1.410       .  A
C1162      C1163   1.418       .  A
C1162      H1167   1.070       .  S
C1163      C1164   1.436       .  A
C1163      C1170   1.437       .  S
C1164      C1165   1.434       .  A
C1165      C1166   1.429       .  A
C1165      H1168   1.055       .  S
C1166      C1169   1.442       .  S
C1169      N1171   1.157       .  T
C1170      N1172   1.154       .  T
C1173      C1174   1.396       .  A
C1173      C1178   1.436       .  A
C1174      C1175   1.398       .  A
C1174      H1179   1.079   1_554  S
C1175      C1176   1.447       .  A
C1175      C1182   1.444       .  S
C1176      C1177   1.413       .  A
C1177      C1178   1.429       .  A
C1177      H1180   1.084       .  S
C1178      C1181   1.438       .  S
C1181      N1183   1.157       .  T
C1182      N1184   1.156       .  T
C1185      C1186   1.395       .  A
C1185      C1190   1.416       .  A
C1186      C1187   1.411       .  A
C1186      H1191   1.086       .  S
C1187      C1188   1.461       .  A
C1187      C1194   1.450       .  S
C1188      C1189   1.424       .  A
C1189      C1190   1.423       .  A
C1189      H1192   1.079       .  S
C1190      C1193   1.444       .  S
C1193      N1195   1.157       .  T
C1194      N1196   1.158       .  T
C1197      C1198   1.403       .  A
C1197      C1202   1.399       .  A
C1198      C1199   1.430       .  A
C1198      H1203   1.087       .  S
C1199      C1200   1.458       .  A
C1199      C1206   1.431       .  S
C1200      C1201   1.436       .  A
C1201      C1202   1.408       .  A
C1201      H1204   1.064       .  S
C1202      C1205   1.442       .  S
C1205      N1207   1.157       .  T
C1206      N1208   1.157       .  T
C1209      C1210   1.430       .  A
C1209      C1214   1.416       .  A
C1210      C1211   1.442       .  A
C1210      H1215   1.079       .  S
C1211      C1212   1.427       .  A
C1211      C1218   1.440       .  S
C1212      C1213   1.398       .  A
C1213      C1214   1.406       .  A
C1213      H1216   1.078       .  S
C1214      C1217   1.443       .  S
C1217      N1219   1.156       .  T
C1218      N1220   1.157       .  T
C1221      C1222   1.439       .  A
C1221      C1226   1.428       .  A
C1222      C1223   1.434       .  A
C1222      H1227   1.074       .  S
C1223      C1224   1.416       .  A
C1223      C1230   1.442       .  S
C1224      C1225   1.399       .  A
C1225      C1226   1.414       .  A
C1225      H1228   1.078       .  S
C1226      C1229   1.443       .  S
C1229      N1231   1.156       .  T
C1230      N1232   1.157       .  T
C1233      C1234   1.421       .  A
C1233      C1238   1.408       .  A
C1234      C1235   1.418       .  A
C1234      H1239   1.079       .  S
C1235      C1236   1.415       .  A
C1235      C1242   1.441       .  S
C1236      C1237   1.399       .  A
C1237      C1238   1.404       .  A
C1237      H1240   1.083       .  S
C1238      C1241   1.427       .  S
C1241      N1243   1.150       .  T
C1242      N1244   1.157       .  T
C1245      C1246   1.419       .  A
C1245      C1250   1.412       .  A
C1246      C1247   1.427       .  A
C1246      H1251   1.079       .  S
C1247      C1248   1.415       .  A
C1247      C1254   1.439       .  S
C1248      C1249   1.438       .  A
C1249      C1250   1.424       .  A
C1249      H1252   1.079       .  S
C1250      C1253   1.443       .  S
C1253      N1255   1.157       .  T
C1254      N1256   1.156       .  T
C1257      C1258   1.438       .  A
C1257      C1262   1.442       .  A
C1258      C1259   1.433       .  A
C1258      H1263   1.063       .  S
C1259      C1260   1.416       .  A
C1259      C1266   1.442       .  S
C1260      C1261   1.417       .  A
C1261      C1262   1.430       .  A
C1261      H1264   1.079       .  S
C1262      C1265   1.444       .  S
C1265      N1267   1.158       .  T
C1266      N1268   1.157       .  T
C1269      C1270   1.406       .  A
C1269      C1274   1.415       .  A
C1270      C1271   1.421       .  A
C1270      H1275   1.075       .  S
C1271      C1272   1.439       .  A
C1271      C1278   1.439       .  S
C1272      C1273   1.433       .  A
C1273      C1274   1.431       .  A
C1273      H1276   1.077       .  S
C1274      C1277   1.442       .  S
C1277      N1279   1.157       .  T
C1278      N1280   1.158       .  T
C1281      C1282   1.431       .  A
C1281      C1286   1.399       .  A
C1282      C1283   1.425       .  A
C1282      H1287   1.075       .  S
C1283      C1284   1.415       .  A
C1283      C1290   1.441       .  S
C1284      C1285   1.421       .  A
C1285      C1286   1.423       .  A
C1285      H1288   1.072       .  S
C1286      C1289   1.439       .  S
C1289      N1291   1.155       .  T
C1290      N1292   1.157       .  T
C1293      C1294   1.399       .  A
C1293      C1298   1.407       .  A
C1294      C1295   1.426       .  A
C1294      H1299   1.085       .  S
C1295      C1296   1.459       .  A
C1295      C1302   1.438       .  S
C1296      C1297   1.431       .  A
C1297      C1298   1.416       .  A
C1297      H1300   1.066       .  S
C1298      C1301   1.444       .  S
C1301      N1303   1.157   1_655  T
C1302      N1304   1.158       .  T
C1305      C1306   1.434       .  A
C1305      C1310   1.443       .  A
C1306      C1307   1.415       .  A
C1306      H1311   1.056       .  S
C1307      C1308   1.402       .  A
C1307      C1314   1.445       .  S
C1308      C1309   1.418       .  A
C1309      C1310   1.439       .  A
C1309      H1312   1.076       .  S
C1310      C1313   1.442       .  S
C1313      N1315   1.157       .  T
C1314      N1316   1.157       .  T
C1317      C1318   1.387       .  A
C1317      C1322   1.425       .  A
C1318      C1319   1.404       .  A
C1318      H1323   1.081       .  S
C1319      C1320   1.459       .  A
C1319      C1326   1.444       .  S
C1320      C1321   1.421       .  A
C1321      C1322   1.431       .  A
C1321      H1324   1.082       .  S
C1322      C1325   1.441       .  S
C1325      N1327   1.157       .  T
C1326      N1328   1.157       .  T
C1329      C1330   1.416       .  A
C1329      C1334   1.402       .  A
C1330      C1331   1.431       .  A
C1330      H1335   1.081       .  S
C1331      C1332   1.437       .  A
C1331      C1338   1.443       .  S
C1332      C1333   1.429       .  A
C1333      C1334   1.413       .  A
C1333      H1336   1.072       .  S
C1334      C1337   1.445   1_545  S
C1337      N1339   1.157       .  T
C1338      N1340   1.158       .  T
C1341      C1342   1.396       .  A
C1341      C1346   1.421       .  A
C1342      C1343   1.409       .  A
C1342      H1347   1.085       .  S
C1343      C1344   1.439       .  A
C1343      C1350   1.436       .  S
C1344      C1345   1.423       .  A
C1345      C1346   1.425       .  A
C1345      H1348   1.082       .  S
C1346      C1349   1.440       .  S
C1349      N1351   1.157       .  T
C1350      N1352   1.158       .  T
C1353      C1354   1.407       .  A
C1353      C1358   1.391       .  A
C1354      C1355   1.427       .  A
C1354      H1359   1.085       .  S
C1355      C1356   1.453       .  A
C1355      C1362   1.436       .  S
C1356      C1357   1.448       .  A
C1357      C1358   1.409       .  A
C1357      H1360   1.070       .  S
C1358      C1361   1.447       .  S
C1361      N1363   1.157       .  T
C1362      N1364   1.158       .  T
C1365      C1366   1.416       .  A
C1365      C1370   1.402       .  A
C1366      C1367   1.430       .  A
C1366      H1371   1.083       .  S
C1367      C1368   1.432       .  A
C1367      C1374   1.438       .  S
C1368      C1369   1.438       .  A
C1369      C1370   1.411       .  A
C1369      H1372   1.076       .  S
C1370      C1373   1.444       .  S
C1373      N1375   1.157       .  T
C1374      N1376   1.155       .  T
C1377      C1378   1.396       .  A
C1377      C1382   1.426       .  A
C1378      C1379   1.395       .  A
C1378      H1383   1.082       .  S
C1379      C1380   1.431       .  A
C1379      C1386   1.441       .  S
C1380      C1381   1.407       .  A
C1381      C1382   1.418       .  A
C1381      H1384   1.077       .  S
C1382      C1385   1.443       .  S
C1385      N1387   1.157       .  T
C1386      N1388   1.155       .  T
C1389      C1390   1.393       .  A
C1389      C1394   1.423       .  A
C1390      C1391   1.416       .  A
C1390      H1395   1.074       .  S
C1391      C1392   1.447       .  A
C1391      C1398   1.444       .  S
C1392      C1393   1.409       .  A
C1393      C1394   1.429       .  A
C1393      H1396   1.078       .  S
C1394      C1397   1.442       .  S
C1397      N1399   1.158       .  T
C1398      N1400   1.157       .  T
C1401      C1402   1.402       .  A
C1401      C1406   1.404       .  A
C1402      C1403   1.416       .  A
C1402      H1407   1.084       .  S
C1403      C1404   1.443       .  A
C1403      C1410   1.442       .  S
C1404      C1405   1.427       .  A
C1405      C1406   1.414       .  A
C1405      H1408   1.072       .  S
C1406      C1409   1.442       .  S
C1409      N1411   1.157       .  T
C1410      N1412   1.157       .  T
C1413      C1414   1.424       .  A
C1413      C1418   1.456       .  A
C1414      C1415   1.442       .  A
C1414      H1419   1.079       .  S
C1415      C1416   1.414       .  A
C1415      C1422   1.441       .  S
C1416      C1417   1.394       .  A
C1417      C1418   1.407       .  A
C1417      H1420   1.086       .  S
C1418      C1421   1.443       .  S
C1421      N1423   1.154       .  T
C1422      N1424   1.158       .  T
C1425      C1426   1.442       .  A
C1425      C1430   1.462       .  A
C1426      C1427   1.416       .  A
C1426      H1431   1.065       .  S
C1427      C1428   1.402       .  A
C1427      C1434   1.442       .  S
C1428      C1429   1.390       .  A
C1429      C1430   1.420       .  A
C1429      H1432   1.087       .  S
C1430      C1433   1.433       .  S
C1433      N1435   1.156       .  T
C1434      N1436   1.157       .  T
C1437      C1438   1.426       .  A
C1437      C1442   1.432       .  A
C1438      C1439   1.425       .  A
C1438      H1443   1.055       .  S
C1439      C1440   1.415       .  A
C1439      C1446   1.438       .  S
C1440      C1441   1.422       .  A
C1441      C1442   1.433       .  A
C1441      H1444   1.075       .  S
C1442      C1445   1.446       .  S
C1445      N1447   1.158       .  T
C1446      N1448   1.157       .  T
C1449      C1450   1.390       .  A
C1449      C1454   1.401       .  A
C1450      C1451   1.416       .  A
C1450      H1455   1.087       .  S
C1451      C1452   1.460       .  A
C1451      C1458   1.430       .  S
C1452      C1453   1.424       .  A
C1453      C1454   1.403       .  A
C1453      H1456   1.057       .  S
C1454      C1457   1.445       .  S
C1457      N1459   1.157       .  T
C1458      N1460   1.156       .  T
C1461      C1462   1.442       .  A
C1461      C1466   1.446       .  A
C1462      C1463   1.435       .  A
C1462      H1467   1.076       .  S
C1463      C1464   1.415       .  A
C1463      C1470   1.442       .  S
C1464      C1465   1.406       .  A
C1465      C1466   1.430       .  A
C1465      H1468   1.083       .  S
C1466      C1469   1.445       .  S
C1469      N1471   1.157       .  T
C1470      N1472   1.157       .  T
C1473      C1474   1.405       .  A
C1473      C1478   1.454       .  A
C1474      C1475   1.422       .  A
C1474      H1479   1.074       .  S
C1475      C1476   1.410       .  A
C1475      C1482   1.440       .  S
C1476      C1477   1.388       .  A
C1477      C1478   1.402       .  A
C1477      H1480   1.084       .  S
C1478      C1481   1.437       .  S
C1481      N1483   1.153       .  T
C1482      N1484   1.158       .  T
C1485      C1486   1.423       .  A
C1485      C1490   1.406       .  A
C1486      C1487   1.410       .  A
C1486      H1491   1.085       .  S
C1487      C1488   1.425       .  A
C1487      C1494   1.435       .  S
C1488      C1489   1.432       .  A
C1489      C1490   1.428       .  A
C1489      H1492   1.072       .  S
C1490      C1493   1.442       .  S
C1493      N1495   1.158       .  T
C1494      N1496   1.156       .  T
C1497      C1498   1.435       .  A
C1497      C1502   1.466       .  A
C1498      C1499   1.423       .  A
C1498      H1503   1.080       .  S
C1499      C1500   1.412       .  A
C1499      C1506   1.442       .  S
C1500      C1501   1.397       .  A
C1501      C1502   1.419       .  A
C1501      H1504   1.087       .  S
C1502      C1505   1.447       .  S
C1505      N1507   1.157       .  T
C1506      N1508   1.157       .  T
C1509      C1510   1.418       .  A
C1509      C1514   1.445       .  A
C1510      C1511   1.427       .  A
C1510      H1515   1.072       .  S
C1511      C1512   1.411       .  A
C1511      C1518   1.443       .  S
C1512      C1513   1.406       .  A
C1513      C1514   1.426       .  A
C1513      H1516   1.083       .  S
C1514      C1517   1.439       .  S
C1517      N1519   1.158       .  T
C1518      N1520   1.157       .  T
C1521      C1522   1.419       .  A
C1521      C1526   1.454       .  A
C1522      C1523   1.416       .  A
C1522      H1527   1.067       .  S
C1523      C1524   1.399       .  A
C1523      C1530   1.443       .  S
C1524      C1525   1.387       .  A
C1525      C1526   1.411       .  A
C1525      H1528   1.086       .  S
C1526      C1529   1.435       .  S
C1529      N1531   1.156       .  T
C1530      N1532   1.157       .  T
C1533      C1534   1.417       .  A
C1533      C1538   1.436       .  A
C1534      C1535   1.400       .  A
C1534      H1539   1.058       .  S
C1535      C1536   1.403       .  A
C1535      C1542   1.443       .  S
C1536      C1537   1.411       .  A
C1537      C1538   1.425       .  A
C1537      H1540   1.084       .  S
C1538      C1541   1.440       .  S
C1541      N1543   1.156       .  T
C1542      N1544   1.156       .  T
C1545      C1546   1.410       .  A
C1545      C1550   1.441       .  A
C1546      C1547   1.416       .  A
C1546      H1551   1.073       .  S
C1547      C1548   1.410       .  A
C1547      C1554   1.440       .  S
C1548      C1549   1.415       .  A
C1549      C1550   1.440       .  A
C1549      H1552   1.077       .  S
C1550      C1553   1.442       .  S
C1553      N1555   1.157       .  T
C1554      N1556   1.158       .  T
C1557      C1558   1.436       .  A
C1557      C1562   1.411       .  A
C1558      C1559   1.426       .  A
C1558      H1563   1.078       .  S
C1559      C1560   1.419       .  A
C1559      C1566   1.440       .  S
C1560      C1561   1.410       .  A
C1561      C1562   1.428       .  A
C1561      H1564   1.082       .  S
C1562      C1565   1.446       .  S
C1565      N1567   1.158       .  T
C1566      N1568   1.157       .  T
C1569      C1570   1.417       .  A
C1569      C1574   1.405       .  A
C1570      C1571   1.405       .  A
C1570      H1575   1.082       .  S
C1571      C1572   1.429       .  A
C1571      C1578   1.439       .  S
C1572      C1573   1.422       .  A
C1573      C1574   1.420       .  A
C1573      H1576   1.064       .  S
C1574      C1577   1.443       .  S
C1577      N1579   1.158       .  T
C1578      N1580   1.158       .  T
C1581      C1582   1.430       .  A
C1581      C1586   1.453       .  A
C1582      C1583   1.428       .  A
C1582      H1587   1.077       .  S
C1583      C1584   1.416       .  A
C1583      C1590   1.441       .  S
C1584      C1585   1.399       .  A
C1585      C1586   1.419       .  A
C1585      H1588   1.085       .  S
C1586      C1589   1.447       .  S
C1589      N1591   1.158       .  T
C1590      N1592   1.157       .  T
C1593      C1594   1.432       .  A
C1593      C1598   1.400       .  A
C1594      C1595   1.409       .  A
C1594      H1599   1.068       .  S
C1595      C1596   1.408       .  A
C1595      C1602   1.440       .  S
C1596      C1597   1.432       .  A
C1597      C1598   1.434       .  A
C1597      H1600   1.074       .  S
C1598      C1601   1.437       .  S
C1601      N1603   1.156       .  T
C1602      N1604   1.156       .  T
C1605      C1606   1.434       .  A
C1605      C1610   1.455       .  A
C1606      C1607   1.422       .  A
C1606      H1611   1.082       .  S
C1607      C1608   1.407       .  A
C1607      C1614   1.440       .  S
C1608      C1609   1.400       .  A
C1609      C1610   1.426       .  A
C1609      H1612   1.085       .  S
C1610      C1613   1.437       .  S
C1613      N1615   1.158       .  T
C1614      N1616   1.157       .  T
C1617      C1618   1.427       .  A
C1617      C1622   1.436       .  A
C1618      C1619   1.415       .  A
C1618      H1623   1.065       .  S
C1619      C1620   1.411       .  A
C1619      C1626   1.444       .  S
C1620      C1621   1.416       .  A
C1621      C1622   1.433       .  A
C1621      H1624   1.084       .  S
C1622      C1625   1.443       .  S
C1625      N1627   1.158       .  T
C1626      N1628   1.157       .  T
C1629      C1630   1.438       .  A
C1629      C1634   1.437       .  A
C1630      C1631   1.422       .  A
C1630      H1635   1.076       .  S
C1631      C1632   1.410       .  A
C1631      C1638   1.441       .  S
C1632      C1633   1.400       .  A
C1633      C1634   1.414       .  A
C1633      H1636   1.082       .  S
C1634      C1637   1.447       .  S
C1637      N1639   1.158       .  T
C1638      N1640   1.157       .  T
C1641      C1642   1.431       .  A
C1641      C1646   1.408       .  A
C1642      C1643   1.389       .  A
C1642      H1647   1.075       .  S
C1643      C1644   1.405       .  A
C1643      C1650   1.443       .  S
C1644      C1645   1.427       .  A
C1645      C1646   1.431       .  A
C1645      H1648   1.083       .  S
C1646      C1649   1.421       .  S
C1649      N1651   1.151       .  T
C1650      N1652   1.158       .  T
C1653      C1654   1.408       .  A
C1653      C1658   1.442       .  A
C1654      C1655   1.434       .  A
C1654      H1659   1.082       .  S
C1655      C1656   1.443       .  A
C1655      C1662   1.441       .  S
C1656      C1657   1.400       .  A
C1657      C1658   1.394       .  A
C1657      H1660   1.082       .  S
C1658      C1661   1.443       .  S
C1661      N1663   1.156       .  T
C1662      N1664   1.158       .  T
C1665      C1666   1.414       .  A
C1665      C1670   1.393       .  A
C1666      C1667   1.401       .  A
C1666      H1671   1.085       .  S
C1667      C1668   1.422       .  A
C1667      C1674   1.444       .  S
C1668      C1669   1.426       .  A
C1669      C1670   1.382       .  A
C1669      H1672   1.076       .  S
C1670      C1673   1.450       .  S
C1673      N1675   1.157       .  T
C1674      N1676   1.158       .  T
C1677      C1678   1.445       .  A
C1677      C1682   1.396       .  A
C1678      C1679   1.386       .  A
C1678      H1683   1.078       .  S
C1679      C1680   1.377       .  A
C1679      C1686   1.440       .  S
C1680      C1681   1.404       .  A
C1681      C1682   1.395       .  A
C1681      H1684   1.072       .  S
C1682      C1685   1.435       .  S
C1685      N1687   1.158       .  T
C1686      N1688   1.156       .  T
C1689      C1690   1.407       .  A
C1689      C1694   1.456       .  A
C1690      C1691   1.360       .  A
C1690      H1695   1.068       .  S
C1691      C1692   1.385       .  A
C1691      C1698   1.437       .  S
C1692      C1693   1.376       .  A
C1693      C1694   1.391       .  A
C1693      H1696   1.087       .  S
C1694      C1697   1.445       .  S
C1697      N1699   1.158       .  T
C1698      N1700   1.158       .  T
C1701      C1702   1.412       .  A
C1701      C1706   1.373       .  A
C1702      C1703   1.417       .  A
C1702      H1707   1.083       .  S
C1703      C1704   1.424       .  A
C1703      C1710   1.437       .  S
C1704      C1705   1.434       .  A
C1705      C1706   1.384       .  A
C1705      H1708   1.052       .  S
C1706      C1709   1.448       .  S
C1709      N1711   1.157       .  T
C1710      N1712   1.156       .  T
C1713      C1714   1.416       .  A
C1713      C1718   1.396       .  A
C1714      C1715   1.392       .  A
C1714      H1719   1.081       .  S
C1715      C1716   1.402       .  A
C1715      C1722   1.439       .  S
C1716      C1717   1.411       .  A
C1717      C1718   1.362       .  A
C1717      H1720   1.076       .  S
C1718      C1721   1.444       .  S
C1721      N1723   1.157       .  T
C1722      N1724   1.156       .  T
C1725      C1726   1.412       .  A
C1725      C1730   1.404       .  A
C1726      C1727   1.389       .  A
C1726      H1731   1.075       .  S
C1727      C1728   1.421       .  A
C1727      C1734   1.445       .  S
C1728      C1729   1.425       .  A
C1729      C1730   1.396       .  A
C1729      H1732   1.081       .  S
C1730      C1733   1.439       .  S
C1733      N1735   1.157       .  T
C1734      N1736   1.157       .  T
C1737      C1738   1.381       .  A
C1737      C1742   1.405       .  A
C1738      C1739   1.398       .  A
C1738      H1743   1.086       .  S
C1739      C1740   1.460       .  A
C1739      C1746   1.449       .  S
C1740      C1741   1.399       .  A
C1741      C1742   1.395       .  A
C1741      H1744   1.076       .  S
C1742      C1745   1.425       .  S
C1745      N1747   1.153       .  T
C1746      N1748   1.158       .  T
C1749      C1750   1.435       .  A
C1749      C1754   1.434       .  A
C1750      C1751   1.437       .  A
C1750      H1755   1.072       .  S
C1751      C1752   1.416       .  A
C1751      C1758   1.437       .  S
C1752      C1753   1.413       .  A
C1753      C1754   1.414       .  A
C1753      H1756   1.086       .  S
C1754      C1757   1.437       .  S
C1757      N1759   1.155       .  T
C1758      N1760   1.156       .  T
C1761      C1762   1.428       .  A
C1761      C1766   1.475       .  A
C1762      C1763   1.420       .  A
C1762      H1767   1.079       .  S
C1763      C1764   1.418       .  A
C1763      C1770   1.437       .  S
C1764      C1765   1.381       .  A
C1765      C1766   1.408       .  A
C1765      H1768   1.089       .  S
C1766      C1769   1.448       .  S
C1769      N1771   1.157       .  T
C1770      N1772   1.157       .  T
C1773      C1774   1.422       .  A
C1773      C1778   1.412       .  A
C1774      C1775   1.427       .  A
C1774      H1779   1.080       .  S
C1775      C1776   1.423       .  A
C1775      C1782   1.441       .  S
C1776      C1777   1.410       .  A
C1777      C1778   1.420       .  A
C1777      H1780   1.083       .  S
C1778      C1781   1.440       .  S
C1781      N1783   1.157       .  T
C1782      N1784   1.157       .  T
C1785      C1786   1.388       .  A
C1785      C1790   1.457       .  A
C1786      C1787   1.387       .  A
C1786      H1791   1.073       .  S
C1787      C1788   1.396       .  A
C1787      C1794   1.441       .  S
C1788      C1789   1.390       .  A
C1789      C1790   1.403       .  A
C1789      H1792   1.084       .  S
C1790      C1793   1.445       .  S
C1793      N1795   1.158       .  T
C1794      N1796   1.157       .  T
