geometry optimzed in LAMMPS
_audit_creation_date              2020-12-01 
_audit_creation_method            'lammps2cif' 
_symmetry_space_group_name_H-M    'P1' 
_symmetry_Int_Tables_number       1 
_symmetry_cell_setting            triclinic 
loop_ 
_symmetry_equiv_pos_as_xyz 
  x,y,z 
_cell_length_a                    35.21802513 
_cell_length_b                    35.237683083552845 
_cell_length_c                    35.082405123845426 
_cell_angle_alpha                 89.23801641299923 
_cell_angle_beta                  89.26394705916654 
_cell_angle_gamma                 120.02007707647394 
loop_ 
_atom_site_label 
_atom_site_type_symbol 
_atom_site_fract_x 
_atom_site_fract_y 
_atom_site_fract_z 
_atom_site_charge 
C1          C  0.49677525  0.72942956  0.10373380     0.82400
N2          N  0.48970117  0.75789093  0.08278403    -0.75900
C3          C  0.48791893  0.79122063  0.09996196     0.84900
N4          N  0.49316010  0.79625743  0.13799275    -0.75800
C5          C  0.50008062  0.76814519  0.15938090     0.85000
N6          N  0.50175664  0.73436557  0.14221093    -0.77500
C7          C  0.49752630  0.71578130  0.32716898     0.82400
N8          N  0.49802885  0.75012022  0.34469044    -0.75900
C9          C  0.50163127  0.78443892  0.32358117     0.84900
N10         N  0.50451965  0.78405770  0.28474757    -0.75800
C11         C  0.50414811  0.74941470  0.26730426     0.85000
N12         N  0.50070122  0.71565012  0.28877982    -0.77500
C13         C  0.23281636  0.78471066  0.32589743     0.82400
N14         N  0.23422278  0.78651272  0.28722360    -0.75900
C15         C  0.20096806  0.75495129  0.26714364     0.84900
N16         N  0.16609453  0.72143157  0.28614897    -0.75800
C17         C  0.16462064  0.71969241  0.32489252     0.85000
N18         N  0.19803361  0.75130388  0.34472716    -0.77500
C19         C  0.20894802  0.76670219  0.10298082     0.82400
N20         N  0.17864405  0.73206110  0.08335470    -0.75900
C21         C  0.14705242  0.69602903  0.10235990     0.84900
N22         N  0.14566329  0.69464454  0.14102841    -0.75800
C23         C  0.17591133  0.72909044  0.16093445     0.85000
N24         N  0.20764750  0.76521793  0.14175434    -0.77500
C25         C  0.14366552  0.42889984  0.09875502     0.82400
N26         N  0.18123960  0.43621309  0.08082142    -0.75900
C27         C  0.21584417  0.44155293  0.10157514     0.84900
N28         N  0.21282533  0.43968959  0.14026290    -0.75800
C29         C  0.17530206  0.43247726  0.15835875     0.85000
N30         N  0.14089568  0.42727586  0.13742780    -0.77500
C31         C  0.16761924  0.44410771  0.32108599     0.82400
N32         N  0.19974863  0.44440227  0.34214236    -0.75900
C33         C  0.23258789  0.44113892  0.32486842     0.84900
N34         N  0.23350293  0.43784702  0.28640566    -0.75800
C35         C  0.20132569  0.43737926  0.26510248     0.85000
N36         N  0.16837359  0.44063647  0.28261160    -0.77500
C37         C  0.77222516  0.24938247  0.32666951     0.82400
N38         N  0.73765753  0.21626648  0.34598400    -0.75900
C39         C  0.70332479  0.18518050  0.32661157     0.84900
N40         N  0.70348878  0.18730397  0.28797173    -0.75800
C41         C  0.73803033  0.22049433  0.26848482     0.85000
N42         N  0.77233886  0.25153836  0.28800842    -0.77500
C43         C  0.73726280  0.23557378  0.10544455     0.82400
N44         N  0.70227767  0.20498386  0.08643031    -0.75900
C45         C  0.66850346  0.17121564  0.10584654     0.84900
N46         N  0.66969675  0.16801229  0.14435422    -0.75800
C47         C  0.70470078  0.19857254  0.16357344     0.85000
N48         N  0.73850682  0.23243550  0.14394952    -0.77500
C49         C  0.75447795  0.51496955  0.10041545     0.82400
N50         N  0.75175524  0.51444712  0.13911205    -0.75900
C51         C  0.71885570  0.51754132  0.15690152     0.84900
N52         N  0.68876541  0.52108469  0.13567118    -0.75800
C53         C  0.69137947  0.52162590  0.09703454     0.85000
N54         N  0.72420372  0.51847156  0.07938877    -0.77500
C55         C  0.76303946  0.50290632  0.32404320     0.82400
N56         N  0.72832461  0.50272941  0.34141656    -0.75900
C57         C  0.69785716  0.50559212  0.32023524     0.84900
N58         N  0.70221220  0.50874371  0.28160113    -0.75800
C59         C  0.73702685  0.50893371  0.26404992     0.85000
N60         N  0.76735261  0.50602611  0.28547045    -0.77500
C61         C  0.42972249  0.18290249  0.31762348     0.82400
N62         N  0.43049639  0.21330155  0.34140200    -0.75900
C63         C  0.43060691  0.24921609  0.32707335     0.84900
N64         N  0.43003288  0.25502662  0.28896845    -0.75800
C65         C  0.42923869  0.22509949  0.26469866     0.85000
N66         N  0.42911690  0.18870880  0.27906553    -0.77500
C67         C  0.41626262  0.18677071  0.09311064     0.82400
N68         N  0.41932357  0.22409446  0.07859296    -0.75900
C69         C  0.42465053  0.25653364  0.10227744     0.84900
N70         N  0.42686323  0.25135631  0.14069739    -0.75800
C71         C  0.42381830  0.21367609  0.15516854     0.85000
N72         N  0.41858429  0.18179198  0.13112005    -0.77500
C73         C  0.49464415  0.62900724  0.04397777     0.44700
N74         N  0.48196543  0.56491067  0.02914318     0.03500
C75         C  0.54907664  0.48234248  0.36347576    -0.04300
H76         H  0.44499488  0.55078296  0.34392895     0.09000
C77         C  0.33128334  0.42627719  0.42227919    -0.04700
Co78       Co  0.53837979  0.55110120  0.45475406     0.74200
N79         N  0.48156905  0.54324538  0.38959123    -0.23900
Co80       Co  0.46276187  0.47692291  0.39274020     0.74100
C81         C  0.33307741  0.44850881  0.38649936     0.44800
N82         N  0.36991795  0.45104719  0.01020647     0.03200
N83         N  0.39707526  0.45930067  0.39784477    -0.00600
N84         N  0.59798421  0.53088293  0.40441855    -0.44700
H85         H  0.54634067  0.64719155  0.48233078     0.09000
N86         N  0.51055662  0.57139238  0.41324799     0.03600
N87         N  0.44427001  0.41089351  0.39848297     0.03300
C88         C  0.43496644  0.34716482  0.38927747     0.44900
N89         N  0.39724348  0.47915515  0.03489952    -0.23300
C90         C  0.59686346  0.55132766  0.00420042    -0.04200
N91         N  0.47399315  0.58664286  0.05568339    -0.44400
N92         N  0.45372905  0.38813583  0.37432015    -0.44600
C93         C  0.59462846  0.52772178  0.03930741     0.44700
N94         N  0.55759122  0.52264529  0.41230790     0.03500
N95         N  0.44672071  0.43282524  0.03571476    -0.23300
N96         N  0.51776523  0.57830233  0.49713304    -0.23800
N97         N  0.41922563  0.40441020  0.01137917     0.03200
H98         H  0.47841880  0.42569035  0.08547641     0.09100
H99         H  0.39257371  0.31854177  0.44388681     0.09100
N100        N  0.52852437  0.49451456  0.38873816    -0.23900
N101        N  0.37256503  0.43487835  0.42698571    -0.23500
N102        N  0.53082424  0.51805658  0.02836102     0.03500
C103        C  0.49279410  0.61004750  0.37886623     0.44900
C104        C  0.37404149  0.48864116  0.05983819    -0.04700
N105        N  0.41996451  0.38689348  0.42794021    -0.23500
H106        H  0.30349246  0.40604612  0.44098555     0.09100
N107        N  0.51835650  0.61189036  0.40770036    -0.44700
H108        H  0.38707482  0.50968576  0.08407343     0.09100
C109        C  0.43317457  0.36563703  0.05024499     0.44800
C110        C  0.51693491  0.63194363  0.00765257    -0.04200
Co111      Co  0.46423341  0.49886128  0.03270815     0.73800
N112        N  0.32857445  0.44022273  0.01698957    -0.44400
C113        C  0.59481348  0.50632518  0.37414189     0.45000
N114        N  0.55295474  0.50804220  0.05288305    -0.44400
Co115      Co  0.39849285  0.41347257  0.46963453     0.73900
C116        C  0.41219584  0.34581221  0.42450113    -0.04800
C117        C  0.46854369  0.56491415  0.36637112    -0.04300
N118        N  0.56364336  0.52850970  0.49679743    -0.23800
N119        N  0.37455149  0.46783909  0.37262285    -0.44600
H120        H  0.53393381  0.46015609  0.34026234     0.09000
C121        C  0.45741886  0.41130704  0.06140122    -0.04700
Cl122      Cl  0.46833564  0.48235251  0.46218400    -0.47700
C123        C  0.32874918  0.46302160  0.04755669     0.44800
H124        H  0.63164442  0.55337786  0.48080942     0.09000
N125        N  0.40996058  0.36365072  0.01922623    -0.44400
C126        C  0.07397086  0.45815090  0.37796016     0.44700
N127        N  0.02119777  0.44292136  0.41729184     0.03500
C128        C  0.87979197  0.52633597  0.41979168    -0.04300
H129        H  0.04622386  0.64433968  0.43509991     0.09000
C130        C  0.03021644  0.54638838  0.05813847    -0.04700
Co131      Co  0.96876175  0.48464194  0.39361676     0.74200
N132        N  0.01022384  0.57493405  0.42391996    -0.23900
Co133      Co  0.96201387  0.54625733  0.46705331     0.74100
C134        C  0.05386004  0.59195224  0.04492110     0.44800
N135        N  0.99017098  0.43820799  0.02959000     0.03200
N136        N  0.00067288  0.55557684  0.00774057     0.03300
N137        N  0.88589654  0.48684223  0.37206171    -0.44700
H138        H  0.05751340  0.50198633  0.34070753     0.09000
N139        N  0.01308999  0.55139002  0.39624824     0.03600
N140        N  0.90515284  0.51432733  0.01006637     0.03300
C141        C  0.85237926  0.50340919  0.04794512     0.44900
N142        N  0.01881045  0.43572377  0.50286945    -0.23300
C143        C  0.89225854  0.39552924  0.36770338    -0.04200
N144        N  0.05305185  0.43436996  0.40962467    -0.44400
N145        N  0.87571026  0.52653997  0.01677846    -0.44600
C146        C  0.87337504  0.35015713  0.38037099     0.44700
N147        N  0.91757557  0.49834666  0.39696455     0.03500
N148        N  0.89244404  0.37101533  0.00304503    -0.23300
N149        N  0.01949953  0.47014489  0.39199211    -0.23800
N150        N  0.89473633  0.39683475  0.03098481     0.03200
H151        H  0.88371945  0.31667552  0.48635488     0.09100
H152        H  0.86061192  0.45362223  0.08478231     0.09100
N153        N  0.91483489  0.52155024  0.42506071    -0.23900
N154        N  0.99779713  0.52629021  0.03327457    -0.23500
N155        N  0.92573455  0.39022867  0.41707872     0.03500
C156        C  0.06343166  0.61690698  0.38262289     0.44900
C157        C  0.01872008  0.40090060  0.00723916    -0.04700
N158        N  0.90253784  0.48484091  0.03519468    -0.23500
H159        H  0.03543011  0.53128616  0.08304128     0.09100
N160        N  0.04445203  0.57530983  0.37074578    -0.44700
H161        H  0.06051776  0.40779301  0.49334314     0.09100
C162        C  0.83827378  0.33503720  0.04503976     0.44800
C163        C  0.05180259  0.48162407  0.36588722    -0.04200
Co164      Co  0.97255647  0.41267575  0.45963812     0.73800
N165        N  0.02144389  0.44581517  0.05403786    -0.44400
C166        C  0.86072958  0.50297193  0.38494353     0.45000
N167        N  0.89559459  0.34894877  0.41093165    -0.44400
Co168      Co  0.94631413  0.46144912  0.03302106     0.73900
C169        C  0.87002666  0.47590114  0.06044610    -0.04800
C170        C  0.04096829  0.61709187  0.41769455    -0.04300
N171        N  0.92441618  0.41794805  0.39220247    -0.23800
N172        N  0.03352577  0.59554004  0.01397810    -0.44600
H173        H  0.86962406  0.54457067  0.43766959     0.09000
C174        C  0.85762581  0.33101753  0.00954000    -0.04700
Cl175      Cl  0.96742082  0.47953570  0.46334993    -0.47700
C176        C  0.04081127  0.42345459  0.04165010     0.44800
H177        H  0.88370701  0.40930408  0.34383346     0.09000
N178        N  0.86298360  0.37637873  0.05701989    -0.44400
C179        C  0.49929672  0.88348158  0.38203016     0.44700
N180        N  0.48718302  0.93556189  0.39611219     0.03500
C181        C  0.51751122  0.06005298  0.05940920    -0.04300
H182        H  0.41964656  0.89075265  0.08271165     0.09000
C183        C  0.30019612  0.89476139  0.00924549    -0.04700
Co184      Co  0.53289755  0.98202420  0.46680782     0.74200
N185        N  0.45209727  0.93365808  0.03389364    -0.23900
Co186      Co  0.43132864  0.97979617  0.03244480     0.74100
C187        C  0.30373993  0.87441759  0.04448690     0.44800
N188        N  0.37412422  0.93569514  0.41713264     0.03200
N189        N  0.36612204  0.93034532  0.03054827     0.03300
N190        N  0.56627763  0.06162091  0.01577352    -0.44700
H191        H  0.54160654  0.89529050  0.43494425     0.09000
N192        N  0.48094455  0.93543459  0.00841897     0.03600
N193        N  0.41115096  0.02626054  0.02816525     0.03300
C194        C  0.40286382  0.08153459  0.03675809     0.44900
N195        N  0.40270476  0.93582979  0.39223501    -0.23300
C196        C  0.60045138  0.06385835  0.41903388    -0.04200
N197        N  0.47929120  0.90551492  0.37024230    -0.44400
N198        N  0.42215639  0.05975932  0.05086933    -0.44600
C199        C  0.59910314  0.08565121  0.38404631     0.44700
N200        N  0.52569179  0.03071155  0.00842159     0.03500
N201        N  0.45061230  0.03123590  0.39006083    -0.23300
N202        N  0.51168755  0.93498558  0.42405680    -0.23800
N203        N  0.42219420  0.03177083  0.41469299     0.03200
H204        H  0.48215034  0.06877271  0.33851431     0.09100
H205        H  0.39032703  0.07351298  0.48764319     0.09100
N206        N  0.49668883  0.02892002  0.03363843    -0.23900
N207        N  0.36737246  0.93507168  0.50247665    -0.23500
N208        N  0.53511323  0.03137804  0.39603923     0.03500
C209        C  0.46760017  0.88096168  0.04452612     0.44900
C210        C  0.38136759  0.90273172  0.36828204    -0.04700
N211        N  0.41676738  0.03118212  0.50049601    -0.23500
H212        H  0.29782025  0.89523256  0.49244292     0.09100
N213        N  0.49146812  0.90468520  0.01397372    -0.44700
H214        H  0.39585529  0.89499590  0.34442203     0.09100
C215        C  0.43545613  0.08308042  0.37368810     0.44800
C216        C  0.52102412  0.90293206  0.41761785    -0.04200
Co217      Co  0.46898934  0.98351782  0.39294221     0.73800
N218        N  0.33345172  0.90385746  0.41141529    -0.44400
C219        C  0.56333617  0.08171877  0.04715047     0.45000
N220        N  0.55788849  0.06378544  0.37104260    -0.44400
Co221      Co  0.39422028  0.98349637  0.45864011     0.73900
C222        C  0.37868085  0.05887475  0.00335266    -0.04800
C223        C  0.44178148  0.90006116  0.05827779    -0.04300
N224        N  0.55927005  0.03063982  0.42424720    -0.23800
N225        N  0.34531308  0.89818226  0.05616982    -0.44600
H226        H  0.50265506  0.06531354  0.08445683     0.09000
C227        C  0.46097705  0.06258503  0.36320841    -0.04700
Cl228      Cl  0.46354680  0.98267697  0.46267763    -0.47700
C229        C  0.33584164  0.88167970  0.38134829     0.44800
H230        H  0.62784687  0.07117704  0.43709081     0.09000
N231        N  0.41187298  0.06223944  0.40569786    -0.44400
C232        C  0.42798446  0.29614207  0.08612967    -0.11100
C233        C  0.43046958  0.32808385  0.07017253    -0.12600
C234        C  0.40678332  0.12052134  0.05262983    -0.11100
C235        C  0.41083184  0.15216684  0.06884265    -0.12600
C236        C  0.42856345  0.23365217  0.22326980    -0.14200
C237        C  0.42579714  0.20572286  0.19651260    -0.29400
H238        H  0.42974789  0.26397421  0.21465629     0.14800
H239        H  0.42418108  0.17520815  0.20514627     0.15400
C240        C  0.43193107  0.28162292  0.35189274    -0.11100
C241        C  0.43334971  0.31085347  0.37019593    -0.12600
C242        C  0.43195890  0.11637242  0.35185015    -0.11100
C243        C  0.43038259  0.14537171  0.33416080    -0.12600
C244        C  0.66141008  0.50588872  0.33886475    -0.11100
C245        C  0.63115670  0.50624385  0.35507445    -0.12600
C246        C  0.82496362  0.50142394  0.36451189    -0.11100
C247        C  0.79602914  0.50129815  0.34644075    -0.12600
C248        C  0.63004420  0.52637587  0.05805678    -0.11100
C249        C  0.65872855  0.52458928  0.07504737    -0.12600
C250        C  0.71444761  0.51604439  0.19896016    -0.14200
C251        C  0.74246791  0.51201521  0.22203753    -0.29400
H252        H  0.68684160  0.51772786  0.21119041     0.14800
H253        H  0.77021123  0.51055304  0.20984145     0.15400
C254        C  0.81790967  0.50773607  0.06614446    -0.11100
C255        C  0.78902745  0.51118539  0.08172350    -0.12600
C256        C  0.60026187  0.11313999  0.06799111    -0.11100
C257        C  0.63131293  0.13933872  0.08558166    -0.12600
C258        C  0.77288198  0.27114202  0.08469972    -0.11100
C259        C  0.80260625  0.30050782  0.06663379    -0.12600
C260        C  0.63561111  0.12107469  0.36396574    -0.11100
C261        C  0.66654363  0.15040961  0.34698013    -0.12600
C262        C  0.73841010  0.22386657  0.22645643    -0.14200
C263        C  0.70510255  0.19468297  0.20550756    -0.29400
H264        H  0.76666336  0.25143249  0.21251698     0.14800
H265        H  0.67686236  0.16713539  0.21947820     0.15400
C266        C  0.80800986  0.28299360  0.34709399    -0.11100
C267        C  0.83793121  0.31270075  0.36316738    -0.12600
C268        C  0.29683286  0.44526468  0.36572537    -0.11100
C269        C  0.26718562  0.44286414  0.34720337    -0.12600
C270        C  0.13381473  0.44898870  0.33964194    -0.11100
C271        C  0.10649741  0.45353526  0.35674013    -0.12600
C272        C  0.20376888  0.43520260  0.22313806    -0.14200
C273        C  0.17186336  0.43202285  0.20043695    -0.29400
H274        H  0.23294817  0.43681649  0.21064660     0.14800
H275        H  0.14234565  0.42959933  0.21299732     0.15400
C276        C  0.25601978  0.45007729  0.08268101    -0.11100
C277        C  0.28963689  0.45683741  0.06691479    -0.12600
C278        C  0.10744053  0.42485728  0.07702910    -0.11100
C279        C  0.07696416  0.42318209  0.06013565    -0.12600
C280        C  0.08747727  0.62856367  0.06461403    -0.11100
C281        C  0.11493188  0.65942004  0.08161435    -0.12600
C282        C  0.26980742  0.83661976  0.06484704    -0.11100
C283        C  0.24212917  0.80492517  0.08253596    -0.12600
C284        C  0.12819465  0.68405153  0.34502732    -0.11100
C285        C  0.09840535  0.65382478  0.36239455    -0.12600
C286        C  0.20350734  0.75780113  0.22498925    -0.14200
C287        C  0.17335292  0.72649680  0.20309209    -0.29400
H288        H  0.23132261  0.78638494  0.21168391     0.14800
H289        H  0.14589760  0.69760465  0.21641651     0.15400
C290        C  0.29875099  0.84673371  0.36326354    -0.11100
C291        C  0.26829278  0.81808859  0.34678231    -0.12600
C292        C  0.49386309  0.67928653  0.34861077    -0.11100
C293        C  0.49223865  0.64738759  0.36310492    -0.12600
C294        C  0.50105496  0.84952528  0.36061355    -0.11100
C295        C  0.50173401  0.82061604  0.34276180    -0.12600
C296        C  0.49767311  0.69364127  0.08472470    -0.11100
C297        C  0.49696772  0.66438685  0.06631435    -0.12600
C298        C  0.47947368  0.82082410  0.07845862    -0.11100
C299        C  0.47296844  0.84743003  0.06263040    -0.12600
C300        C  0.50355425  0.77443579  0.20108861    -0.14200
C301        C  0.50579414  0.74611474  0.22539074    -0.29400
H302        H  0.50198885  0.80228167  0.21218688     0.14800
H303        H  0.50658083  0.71786461  0.21428790     0.15400
C304        C  0.49874743  0.71437495  0.59616412     0.82400
N305        N  0.49701212  0.74803461  0.57871763    -0.75900
C306        C  0.49390450  0.77833534  0.59988601     0.84900
N307        N  0.49257225  0.77499825  0.63852107    -0.75800
C308        C  0.49427769  0.74130273  0.65621045     0.85000
N309        N  0.49728472  0.71097913  0.63483895    -0.77500
C310        C  0.48965156  0.72747698  0.82040504     0.82400
N311        N  0.48821348  0.75927700  0.84067063    -0.75900
C312        C  0.48816168  0.79338083  0.82234938     0.84900
N313        N  0.48942298  0.79562376  0.78367164    -0.75800
C314        C  0.49081584  0.76389970  0.76312627     0.85000
N315        N  0.49088334  0.72972204  0.78165603    -0.77500
C316        C  0.21614172  0.77088759  0.82877133     0.82400
N317        N  0.22204911  0.77705005  0.79058366    -0.75900
C318        C  0.19370747  0.74641732  0.76672971     0.84900
N319        N  0.15871986  0.70889301  0.78159441    -0.75800
C320        C  0.15275845  0.70270627  0.82022608     0.85000
N321        N  0.18160591  0.73383001  0.84365124    -0.77500
C322        C  0.22665127  0.77798028  0.60317007     0.82400
N323        N  0.19758334  0.74635640  0.58023824    -0.75900
C324        C  0.16311894  0.70966983  0.59567384     0.84900
N325        N  0.15747631  0.70438485  0.63390363    -0.75800
C326        C  0.18601813  0.73548034  0.65729737     0.85000
N327        N  0.22098414  0.77266937  0.64190960    -0.77500
C328        C  0.16727161  0.44722365  0.60613847     0.82400
N329        N  0.20175623  0.45201750  0.58462362    -0.75900
C330        C  0.23655282  0.45294421  0.60156576     0.84900
N331        N  0.23704025  0.44903664  0.63989388    -0.75800
C332        C  0.20291209  0.44417693  0.66177870     0.85000
N333        N  0.16776557  0.44332359  0.64485058    -0.77500
C334        C  0.14737513  0.43162274  0.83034005     0.82400
N335        N  0.18383643  0.43603386  0.84710922    -0.75900
C336        C  0.21756390  0.43933804  0.82528562     0.84900
N337        N  0.21475949  0.43863689  0.78654927    -0.75800
C338        C  0.17801680  0.43425207  0.76980434     0.85000
N339        N  0.14465507  0.43082379  0.79193337    -0.77500
C340        C  0.74292050  0.24212764  0.81923086     0.82400
N341        N  0.70726502  0.21422771  0.84079102    -0.75900
C342        C  0.67129030  0.18215765  0.82405843     0.84900
N343        N  0.67080294  0.17761260  0.78587360    -0.75800
C344        C  0.70611029  0.20519284  0.76392216     0.85000
N345        N  0.74246540  0.23777698  0.78063541    -0.77500
C346        C  0.76208189  0.24546380  0.59498578     0.82400
N347        N  0.72715059  0.21126247  0.57898724    -0.75900
C348        C  0.69426692  0.18046439  0.60147558     0.84900
N349        N  0.69637395  0.18414531  0.64010710    -0.75800
C350        C  0.73169100  0.21868826  0.65608782     0.85000
N351        N  0.76433361  0.24907316  0.63330110    -0.77500
C352        C  0.76495104  0.51338983  0.60707664     0.82400
N353        N  0.76116285  0.51829070  0.64528318    -0.75900
C354        C  0.72616439  0.52102622  0.65931325     0.84900
N355        N  0.69553096  0.51870674  0.63504789    -0.75800
C356        C  0.69929493  0.51385920  0.59726782     0.85000
N357        N  0.73388827  0.51119621  0.58326497    -0.77500
C358        C  0.75960944  0.52117231  0.83068121     0.82400
N359        N  0.72519655  0.52366821  0.84557021    -0.75900
C360        C  0.69737685  0.52847667  0.82212097     0.84900
N361        N  0.70399600  0.53028602  0.78347797    -0.75800
C362        C  0.73885026  0.52786512  0.76866286     0.85000
N363        N  0.76628868  0.52341024  0.79253062    -0.77500
C364        C  0.41533361  0.18867860  0.82627960     0.82400
N365        N  0.41933618  0.22267329  0.84707780    -0.75900
C366        C  0.42492493  0.25956503  0.82917153     0.84900
N367        N  0.42644505  0.26243748  0.79056375    -0.75800
C368        C  0.42262672  0.22870034  0.76955370     0.85000
N369        N  0.41709691  0.19173767  0.78755047    -0.77500
C370        C  0.43090938  0.18142554  0.60214167     0.82400
N371        N  0.43288548  0.21713145  0.58504154    -0.75900
C372        C  0.43179748  0.24835882  0.60644714     0.84900
N373        N  0.42878836  0.24388298  0.64505282    -0.75800
C374        C  0.42679901  0.20810143  0.66238228     0.85000
N375        N  0.42783702  0.17692933  0.64073467    -0.77500
C376        C  0.50347087  0.61819485  0.53675396     0.44700
N377        N  0.49288875  0.55411272  0.52622173     0.03500
C378        C  0.54617739  0.50168479  0.86426364    -0.04300
H379        H  0.44138584  0.56382205  0.84163069     0.09000
C380        C  0.32382857  0.43417530  0.91888230    -0.04700
Co381      Co  0.53004190  0.56574439  0.95730472     0.74200
N382        N  0.47429628  0.55715227  0.89064893    -0.23900
Co383      Co  0.45735158  0.49126680  0.89306852     0.74100
C384        C  0.32526159  0.45555449  0.88258629     0.44800
N385        N  0.37924754  0.44252123  0.51072861     0.03200
N386        N  0.39048872  0.47100583  0.89654115    -0.00600
N387        N  0.59330594  0.55037690  0.90601562    -0.44700
H388        H  0.53844244  0.66060911  0.99032617     0.09000
N389        N  0.50185465  0.58570567  0.91498395     0.03600
N390        N  0.44080282  0.42552396  0.89774635     0.03300
C391        C  0.43270699  0.36232484  0.88736911     0.44900
N392        N  0.40778942  0.47107856  0.53440372    -0.23300
C393        C  0.60416448  0.53464408  0.50025321    -0.04200
N394        N  0.48374153  0.57679598  0.55075803    -0.44400
N395        N  0.45124187  0.40371724  0.87324209    -0.44600
C396        C  0.60184486  0.51127324  0.53539318     0.44700
N397        N  0.55212581  0.53976794  0.91418968     0.03500
N398        N  0.45393627  0.42177949  0.53609157    -0.23300
N399        N  0.50723501  0.59056993  0.00076715    -0.23800
N400        N  0.42545838  0.39317908  0.51244217     0.03200
H401        H  0.48589310  0.41490332  0.58574837     0.09100
H402        H  0.38904441  0.33186354  0.94103242     0.09100
N403        N  0.52406150  0.51145704  0.89006944    -0.23900
N404        N  0.36572686  0.44557782  0.92519179    -0.23500
N405        N  0.53911690  0.50462143  0.52620675     0.03500
C406        C  0.48638955  0.62378824  0.87699257     0.44900
C407        C  0.38673008  0.48454621  0.55782224    -0.04700
N408        N  0.41599606  0.40049886  0.92656969    -0.23500
H409        H  0.29578110  0.41207606  0.93659038     0.09100
N410        N  0.51029379  0.62624981  0.90759596    -0.44700
H411        H  0.40121015  0.50756710  0.58058367     0.09100
C412        C  0.43859943  0.35457956  0.55179011     0.44800
C413        C  0.52630932  0.61967130  0.50135318    -0.04200
Co414      Co  0.47357481  0.48803700  0.53162239     0.73800
N415        N  0.33897211  0.43528853  0.51657287    -0.44400
C416        C  0.59188953  0.52738306  0.87493063     0.45000
N417        N  0.56094749  0.49384621  0.55032350    -0.44400
Co418      Co  0.39204000  0.42474340  0.96842360     0.73900
C419        C  0.40900273  0.35977942  0.92236898    -0.04800
C420        C  0.46271261  0.57832246  0.86549574    -0.04300
N421        N  0.55573763  0.54337461  0.99966205    -0.23800
N422        N  0.36746194  0.47741425  0.87015938    -0.44600
H423        H  0.53206774  0.48027604  0.84039366     0.09000
C424        C  0.46421521  0.40033942  0.56210553    -0.04700
Cl425      Cl  0.46090293  0.49525211  0.96287766    -0.47700
C426        C  0.34154103  0.46107559  0.54545509     0.44800
H427        H  0.62472178  0.57147221  0.98553192     0.09000
N428        N  0.41509365  0.35230578  0.52099374    -0.44400
C429        C  0.04453523  0.43225286  0.88262379     0.44700
N430        N  0.98887013  0.41827795  0.91740167     0.03500
C431        C  0.87347339  0.52910339  0.92246151    -0.04300
H432        H  0.04374041  0.63050205  0.93152973     0.09000
C433        C  0.04596124  0.56352017  0.55571469    -0.04700
Co434      Co  0.94716107  0.47058936  0.89338285     0.74200
N435        N  0.00068527  0.56133592  0.92241043    -0.23900
Co436      Co  0.95316716  0.53841725  0.96652592     0.74100
C437        C  0.06588294  0.60835518  0.54117660     0.44800
N438        N  0.01617194  0.45917631  0.53074923     0.03200
N439        N  0.00986657  0.56854188  0.50831264     0.03300
N440        N  0.86965268  0.48469556  0.87468161    -0.44700
H441        H  0.03693199  0.48196365  0.84503880     0.09000
N442        N  0.99825161  0.53543192  0.89454907     0.03600
N443        N  0.91399381  0.51699685  0.51064466     0.03300
C444        C  0.86268811  0.50314464  0.55180556     0.44900
N445        N  0.98777769  0.41204100  0.00196479    -0.23300
C446        C  0.86558570  0.38637127  0.86619598    -0.04200
N447        N  0.01993458  0.40796017  0.91268493    -0.44400
N448        N  0.88278503  0.52629156  0.51948420    -0.44600
C449        C  0.84251140  0.34033605  0.87753313     0.44700
N450        N  0.90235489  0.49305923  0.89774295     0.03500
N451        N  0.92344473  0.38462199  0.50140491    -0.23300
N452        N  0.99170874  0.44780311  0.89211718    -0.23800
N453        N  0.92061067  0.40794145  0.52933954     0.03200
H454        H  0.84802021  0.30260097  0.99219714     0.09100
H455        H  0.87966485  0.45897703  0.58794759     0.09100
N456        N  0.90520853  0.51898503  0.92575778    -0.23900
N457        N  0.01151203  0.54108350  0.53337147    -0.23500
N458        N  0.89331812  0.37596502  0.91739257     0.03500
C459        C  0.05300563  0.59805924  0.87836753     0.44900
C460        C  0.05157390  0.42771494  0.51021310    -0.04700
N461        N  0.91598716  0.48979447  0.53569575    -0.23500
H462        H  0.05592808  0.55001504  0.57879278     0.09100
N463        N  0.02867159  0.55619853  0.86741423    -0.44700
H464        H  0.02460606  0.37943844  0.98947202     0.09100
C465        C  0.86604562  0.34384160  0.53856268     0.44800
C466        C  0.02613521  0.45857409  0.86863554    -0.04200
Co467      Co  0.94035626  0.39334744  0.95989088     0.73800
N468        N  0.04544444  0.46754649  0.55749721    -0.44400
C469        C  0.84994891  0.50602229  0.88904999     0.45000
N470        N  0.86151131  0.33591294  0.90924999    -0.44400
Co471      Co  0.96602023  0.47438432  0.53308947     0.73900
C472        C  0.88470434  0.47912096  0.56275375    -0.04800
C473        C  0.03452239  0.60179996  0.91468895    -0.04300
N474        N  0.89648388  0.40583515  0.89239625    -0.23800
N475        N  0.04191471  0.60945207  0.51211223    -0.44600
H476        H  0.86786804  0.55014080  0.94104168     0.09000
C477        C  0.89022857  0.34332042  0.50505325    -0.04700
Cl478      Cl  0.94674886  0.46590847  0.96319399    -0.47700
C479        C  0.06913606  0.44909178  0.54631148     0.44800
H480        H  0.86145563  0.40222988  0.84126856     0.09000
N481        N  0.88646557  0.38458270  0.55247951    -0.44400
C482        C  0.47828424  0.88630358  0.88282138     0.44700
N483        N  0.46254063  0.93589310  0.89615461     0.03500
C484        C  0.54507629  0.06029566  0.55932279    -0.04300
H485        H  0.44204103  0.89238682  0.58375580     0.09000
C486        C  0.32590760  0.90259420  0.50957445    -0.04700
Co487      Co  0.50711387  0.98399312  0.96623526     0.74200
N488        N  0.47591150  0.93340016  0.53433629    -0.23900
Co489      Co  0.45817896  0.98170262  0.53241242     0.74100
C490        C  0.32796750  0.88187997  0.54535028     0.44800
N491        N  0.34673463  0.92926532  0.91829070     0.03200
N492        N  0.39215047  0.93458469  0.53021930     0.03300
N493        N  0.59383283  0.06011206  0.51665485    -0.44700
H494        H  0.52152720  0.90114150  0.93538068     0.09000
N495        N  0.50427931  0.93335677  0.50932869     0.03600
N496        N  0.44097600  0.03029336  0.52860007     0.03300
C497        C  0.43276704  0.08511533  0.54037097     0.44900
N498        N  0.37576233  0.93069519  0.89319769    -0.23300
C499        C  0.57063848  0.06751921  0.91915715    -0.04200
N500        N  0.45618554  0.90602944  0.87060567    -0.44400
N501        N  0.45099330  0.06187119  0.55329279    -0.44600
C502        C  0.56750631  0.08866195  0.88459425     0.44700
N503        N  0.55309394  0.02924645  0.50932853     0.03500
N504        N  0.41937787  0.02614645  0.89045559    -0.23300
N505        N  0.48799215  0.93724932  0.92400093    -0.23800
N506        N  0.39055342  0.02519093  0.91543922     0.03200
H507        H  0.45301379  0.06779345  0.84132608     0.09100
H508        H  0.35946015  0.06671232  0.98442085     0.09100
N509        N  0.52417800  0.02868615  0.53399307    -0.23900
N510        N  0.34061312  0.92925099  0.00282939    -0.23500
N511        N  0.50572093  0.03134160  0.89572148     0.03500
C512        C  0.48851868  0.87913234  0.54696722     0.44900
C513        C  0.35588858  0.89595344  0.87073393    -0.04700
N514        N  0.38589564  0.02512408  0.00014545    -0.23500
H515        H  0.27197226  0.88549516  0.99170646     0.09100
N516        N  0.51301628  0.90145086  0.51603187    -0.44700
H517        H  0.37109790  0.88822553  0.84744141     0.09100
C518        C  0.40480235  0.07897178  0.87747617     0.44800
C519        C  0.49969237  0.90691080  0.91799790    -0.04200
Co520      Co  0.44083971  0.98097158  0.89296888     0.73800
N521        N  0.30715282  0.89484090  0.91431764    -0.44400
C522        C  0.59092720  0.08100316  0.54762208     0.45000
N523        N  0.52681297  0.06444016  0.87104574    -0.44400
Co524      Co  0.36488747  0.97716597  0.95912171     0.73900
C525        C  0.40974040  0.06489877  0.50559086    -0.04800
C526        C  0.46408724  0.90012734  0.55944376    -0.04300
N527        N  0.53068133  0.03236241  0.92391985    -0.23800
N528        N  0.36989082  0.90354311  0.55647541    -0.44600
H529        H  0.53008778  0.06690235  0.58351154     0.09000
C530        C  0.43026004  0.05908175  0.86523309    -0.04700
Cl531      Cl  0.43602663  0.98046732  0.96270128    -0.47700
C532        C  0.31089610  0.87243399  0.88517228     0.44800
H533        H  0.59833267  0.07661985  0.93734170     0.09000
N534        N  0.38087137  0.05652854  0.90872458    -0.44400
C535        C  0.43392104  0.28608983  0.58808508    -0.11100
C536        C  0.43593311  0.31738981  0.57170544    -0.12600
C537        C  0.43234110  0.11993713  0.56087127    -0.11100
C538        C  0.43184499  0.14829288  0.57939174    -0.12600
C539        C  0.42475239  0.23321517  0.72751962    -0.14200
C540        C  0.42371663  0.20261054  0.70440461    -0.29400
H541        H  0.42786329  0.26317144  0.71530987     0.14800
H542        H  0.42108681  0.17283821  0.71654714     0.15400
C543        C  0.42890022  0.29557736  0.85082596    -0.11100
C544        C  0.43145778  0.32627039  0.86776232    -0.12600
C545        C  0.40629478  0.11720365  0.86067005    -0.11100
C546        C  0.40975517  0.14968506  0.84526233    -0.12600
C547        C  0.66025387  0.53001848  0.83877868    -0.11100
C548        C  0.62951661  0.52976216  0.85516933    -0.12600
C549        C  0.81564986  0.50980948  0.87111252    -0.11100
C550        C  0.78866455  0.51481708  0.85461562    -0.12600
C551        C  0.63743492  0.51107636  0.55431760    -0.11100
C552        C  0.66651801  0.51184050  0.57244676    -0.12600
C553        C  0.71937090  0.52533315  0.70051123    -0.14200
C554        C  0.74729075  0.52777726  0.72715957    -0.29400
H555        H  0.68956574  0.52519883  0.70917286     0.14800
H556        H  0.77687128  0.52749993  0.71843949     0.15400
C557        C  0.82975450  0.50712865  0.57378695    -0.11100
C558        C  0.80135892  0.51024827  0.59101738    -0.12600
C559        C  0.62744829  0.11520274  0.56721760    -0.11100
C560        C  0.65744913  0.14433002  0.58391024    -0.12600
C561        C  0.79678973  0.27822884  0.57180138    -0.11100
C562        C  0.82784388  0.30768583  0.55540698    -0.12600
C563        C  0.60311514  0.12407612  0.86425800    -0.11100
C564        C  0.63420093  0.15192167  0.84660991    -0.12600
C565        C  0.70337518  0.19859877  0.72236147    -0.14200
C566        C  0.73554926  0.22467508  0.69772535    -0.29400
H567        H  0.67326478  0.17152088  0.71172876     0.14800
H568        H  0.76548600  0.25208360  0.70823939     0.15400
C569        C  0.78036879  0.27646261  0.83785997    -0.11100
C570        C  0.80924885  0.30489551  0.85611801    -0.12600
C571        C  0.28834106  0.45005835  0.86076521    -0.11100
C572        C  0.25661308  0.44503554  0.84351179    -0.12600
C573        C  0.11245988  0.43048847  0.85252757    -0.11100
C574        C  0.08176163  0.43097565  0.86741826    -0.12600
C575        C  0.17384346  0.43511980  0.72796175    -0.14200
C576        C  0.20587224  0.44084495  0.70356045    -0.29400
H577        H  0.14372254  0.43205161  0.71702696     0.14800
H578        H  0.23594947  0.44383222  0.71452662     0.15400
C579        C  0.27292988  0.45764713  0.57933677    -0.11100
C580        C  0.30442839  0.46027097  0.56315528    -0.12600
C581        C  0.13084826  0.44687515  0.58737508    -0.11100
C582        C  0.10230295  0.44750805  0.56897586    -0.12600
C583        C  0.10264585  0.64594201  0.55632607    -0.11100
C584        C  0.13186583  0.67632731  0.57209700    -0.12600
C585        C  0.29245484  0.84679431  0.56740922    -0.11100
C586        C  0.26316735  0.81658947  0.58559153    -0.12600
C587        C  0.11613882  0.66366235  0.83712947    -0.11100
C588        C  0.08705161  0.63309988  0.85513370    -0.12600
C589        C  0.20247579  0.75533179  0.72518745    -0.14200
C590        C  0.17741117  0.72711820  0.69888409    -0.29400
H591        H  0.23085386  0.78625102  0.71608241     0.14800
H592        H  0.14904832  0.69622050  0.70806694     0.15400
C593        C  0.27526350  0.83435882  0.86936216    -0.11100
C594        C  0.24686959  0.80392686  0.85292935    -0.12600
C595        C  0.48918723  0.69119541  0.84014190    -0.11100
C596        C  0.48822997  0.66075010  0.85724424    -0.12600
C597        C  0.48267173  0.85383792  0.86193544    -0.11100
C598        C  0.48568681  0.82650527  0.84390320    -0.12600
C599        C  0.50163941  0.68207513  0.57372295    -0.11100
C600        C  0.50318604  0.65386446  0.55583747    -0.12600
C601        C  0.49186630  0.81381251  0.58137859    -0.11100
C602        C  0.49018096  0.84353616  0.56565251    -0.12600
C603        C  0.49300276  0.73724241  0.69833523    -0.14200
C604        C  0.49188089  0.76719917  0.72099725    -0.29400
H605        H  0.49328055  0.70904330  0.71091411     0.14800
H606        H  0.49178086  0.79544836  0.70831341     0.15400
loop_ 
_geom_bond_atom_site_label_1 
_geom_bond_atom_site_label_2 
_geom_bond_distance 
_geom_bond_site_symmetry_2 
_ccdc_geom_bond_type 
C1            N2   1.358       .  A
C1            N6   1.366       .  A
C1          C296   1.448       .  S
N2            C3   1.356       .  A
C3            N4   1.351       .  A
C3          C298   1.429       .  S
N4            C5   1.353       .  A
C5            N6   1.368       .  A
C5          C300   1.480       .  S
C7            N8   1.357       .  A
C7           N12   1.350       .  A
C7          C292   1.429       .  S
N8            C9   1.359       .  A
C9           N10   1.366       .  A
C9          C295   1.448       .  S
N10          C11   1.367       .  A
C11          N12   1.352       .  A
C11         C301   1.479       .  S
C13          N14   1.357       .  A
C13          N18   1.356       .  A
C13         C291   1.434       .  S
N14          C15   1.358       .  A
C15          N16   1.362       .  A
C15         C286   1.479       .  S
N16          C17   1.359       .  A
C17          N18   1.356       .  A
C17         C284   1.436       .  S
C19          N20   1.357       .  A
C19          N24   1.360       .  A
C19         C283   1.439       .  S
N20          C21   1.356       .  A
C21          N22   1.356       .  A
C21         C281   1.435       .  S
N22          C23   1.358       .  A
C23          N24   1.363       .  A
C23         C287   1.479       .  S
C25          N26   1.359       .  A
C25          N30   1.357       .  A
C25         C278   1.440       .  S
N26          C27   1.359       .  A
C27          N28   1.358       .  A
C27         C276   1.441       .  S
N28          C29   1.361       .  A
C29          N30   1.358       .  A
C29         C273   1.479       .  S
C31          N32   1.355       .  A
C31          N36   1.358       .  A
C31         C270   1.435       .  S
N32          C33   1.355       .  A
C33          N34   1.357       .  A
C33         C269   1.433       .  S
N34          C35   1.359       .  A
C35          N36   1.362       .  A
C35         C272   1.479       .  S
C37          N38   1.356       .  A
C37          N42   1.357       .  A
C37         C266   1.434       .  S
N38          C39   1.356       .  A
C39          N40   1.356       .  A
C39         C261   1.433       .  S
N40          C41   1.360       .  A
C41          N42   1.358       .  A
C41         C262   1.477       .  S
C43          N44   1.355       .  A
C43          N48   1.357       .  A
C43         C258   1.433       .  S
N44          C45   1.355       .  A
C45          N46   1.357       .  A
C45         C257   1.434       .  S
N46          C47   1.359       .  A
C47          N48   1.360       .  A
C47         C263   1.477       .  S
C49          N50   1.359       .  A
C49          N54   1.359       .  A
C49         C255   1.440       .  S
N50          C51   1.361       .  A
C51          N52   1.358       .  A
C51         C250   1.479       .  S
N52          C53   1.357       .  A
C53          N54   1.358       .  A
C53         C249   1.438       .  S
C55          N56   1.356       .  A
C55          N60   1.357       .  A
C55         C247   1.435       .  S
N56          C57   1.357       .  A
C57          N58   1.359       .  A
C57         C244   1.438       .  S
N58          C59   1.362       .  A
C59          N60   1.358       .  A
C59         C251   1.479       .  S
C61          N62   1.356       .  A
C61          N66   1.367       .  A
C61         C243   1.448       .  S
N62          C63   1.354       .  A
C63          N64   1.352       .  A
C63         C240   1.428       .  S
N64          C65   1.354       .  A
C65          N66   1.370       .  A
C65         C236   1.483       .  S
C67          N68   1.356       .  A
C67          N72   1.351       .  A
C67         C235   1.431       .  S
N68          C69   1.359       .  A
C69          N70   1.366       .  A
C69         C232   1.448       .  S
N70          C71   1.368       .  A
C71          N72   1.353       .  A
C71         C237   1.483       .  S
C73          N91   1.348       .  A
C73         C297   1.449       .  S
C73         C110   1.463       .  S
N74          N91   1.326       .  A
N74         N399   1.322       .  A
N74        Co111   2.088       .  S
C75         N100   1.341       .  A
C75         C113   1.453       .  S
C75         H120   1.082       .  S
H76         C117   1.081       .  S
C77         N101   1.341       .  A
C77          C81   1.455       .  S
C77         H106   1.082       .  S
Co78         N96   2.089       .  S
Co78         N86   2.074       .  S
Co78        N118   2.077       .  S
Co78         N94   2.091       .  S
Co78       Cl122   2.451       .  S
N79         C117   1.342       .  A
N79          N86   1.321       .  A
N79         Co80   2.087       .  S
Co80         N83   2.078       .  S
Co80        N100   2.079       .  S
Co80         N87   2.085       .  S
Co80       Cl122   2.449       .  S
C81         N119   1.346       .  A
C81         C268   1.433       .  S
N82          N89   1.322       .  A
N82         N112   1.325       .  A
N82        Co418   2.084   1_554  S
N83         N101   1.320       .  A
N83         N119   1.324       .  A
N84         C113   1.349       .  A
N84          N94   1.326       .  A
H85         C413   1.081       .  S
N86         N107   1.322       .  A
N87         N105   1.321       .  A
N87          N92   1.323       .  A
C88          N92   1.346       .  A
C88         C241   1.428       .  S
C88         C116   1.452       .  S
N89         C104   1.344       .  A
N89        Co111   2.100       .  S
C90         N421   1.343   1_554  A
C90          C93   1.456       .  S
C90         H427   1.082   1_554  S
C93         N114   1.348       .  A
C93         C248   1.439       .  S
N94         N100   1.320       .  A
N95         C121   1.344       .  A
N95          N97   1.320       .  A
N95        Co111   2.089       .  S
N96         C413   1.344       .  A
N96         N377   1.320       .  A
N97         N125   1.328       .  A
N97        Co418   2.097   1_554  S
H98         C121   1.081       .  S
H99         C116   1.081       .  S
N101       Co115   2.082       .  S
N102        N114   1.325       .  A
N102        N421   1.323   1_554  A
N102       Co111   2.093       .  S
C103        N107   1.343       .  A
C103        C293   1.430       .  S
C103        C117   1.456       .  S
C104        C123   1.460       .  S
C104        H108   1.082       .  S
N105        C116   1.339       .  A
N105       Co115   2.075       .  S
C109        N125   1.351       .  A
C109        C233   1.448       .  S
C109        C121   1.457       .  S
C110        N399   1.347       .  A
C110        H388   1.082   1_554  S
Co111      Cl425   2.456   1_554  S
N112        C123   1.347       .  A
C113        C245   1.438       .  S
Co115       N385   2.072       .  S
Co115       N400   2.087       .  S
Co115      Cl122   2.450       .  S
N118        C393   1.340       .  A
N118        N405   1.321       .  A
Cl122      Co414   2.449       .  S
C123        C277   1.441       .  S
H124        C393   1.081       .  S
C126        N144   1.347       .  A
C126        C271   1.435       .  S
C126        C163   1.455       .  S
N127        N144   1.325       .  A
N127        N149   1.322       .  A
N127       Co164   2.084   1_455  S
C128        N153   1.341       .  A
C128        C166   1.455       .  S
C128        H173   1.082       .  S
H129        C170   1.082       .  S
C130        N154   1.341   1_455  A
C130        C134   1.456       .  S
C130        H159   1.082       .  S
Co131       N149   2.090   1_655  S
Co131       N139   2.077   1_655  S
Co131       N171   2.073       .  S
Co131       N147   2.089       .  S
Co131      Cl175   2.449       .  S
N132        C170   1.343       .  A
N132        N139   1.320       .  A
N132       Co133   2.091   1_455  S
Co133       N153   2.083       .  S
Co133       N439   2.079   1_655  S
Co133       N443   2.100       .  S
Co133      Cl175   2.457       .  S
C134        N172   1.347       .  A
C134        C280   1.435       .  S
N135        N165   1.325   1_655  A
N135        N445   1.321       .  A
N135       Co168   2.082       .  S
N136        N154   1.321   1_455  A
N136        N172   1.324       .  A
N136       Co436   2.081   1_454  S
N137        C166   1.347       .  A
N137        N147   1.324       .  A
H138        C163   1.082       .  S
N139        N160   1.324       .  A
N140        N158   1.320       .  A
N140        N145   1.326       .  A
N140       Co436   2.092   1_554  S
C141        N145   1.348       .  A
C141        C254   1.440       .  S
C141        C169   1.455       .  S
N142        C460   1.345       .  A
N142        N438   1.321       .  A
N142       Co164   2.094   1_455  S
C143        N171   1.339       .  A
C143        C146   1.451       .  S
C143        H177   1.081       .  S
C146        N167   1.348       .  A
C146        C267   1.434       .  S
N147        N153   1.322       .  A
N148        C174   1.341       .  A
N148        N150   1.322       .  A
N148       Co467   2.081   1_554  S
N149        C163   1.341       .  A
N150        N178   1.324       .  A
N150       Co168   2.088       .  S
H151        C477   1.081       .  S
H152        C169   1.081       .  S
N154       Co168   2.089       .  S
N155        N167   1.326       .  A
N155        N171   1.320       .  A
N155       Co164   2.089       .  S
C156        N160   1.346       .  A
C156        C285   1.436       .  S
C156        C170   1.456       .  S
C157        N445   1.344   1_455  A
C157        C176   1.458       .  S
C157        H464   1.081   1_554  S
N158        C169   1.342       .  A
N158       Co168   2.081       .  S
H161        C460   1.082       .  S
C162        N178   1.347       .  A
C162        C259   1.433       .  S
C162        C174   1.454       .  S
Co164       N451   2.074       .  S
Co164      Cl175   2.456       .  S
N165        C176   1.347       .  A
C166        C246   1.435       .  S
Co168      Cl478   2.452   1_554  S
C174        H454   1.082   1_554  S
Cl175      Co471   2.449       .  S
C176        C279   1.441       .  S
C179        N197   1.348       .  A
C179        C294   1.448       .  S
C179        C216   1.462       .  S
N180        N197   1.326       .  A
N180        N202   1.321       .  A
N180       Co217   2.088       .  S
C181        N206   1.341       .  A
C181        C219   1.454       .  S
C181        H226   1.082       .  S
H182        C223   1.081       .  S
C183        N510   1.344       .  A
C183        C187   1.459       .  S
C183        H515   1.081   1_554  S
Co184       N202   2.100       .  S
Co184       N224   2.081   1_565  S
Co184       N495   2.085       .  S
Co184       N503   2.100   1_565  S
Co184      Cl228   2.460       .  S
N185        C223   1.342       .  A
N185        N192   1.321       .  A
N185       Co186   2.090       .  S
Co186       N189   2.078       .  S
Co186       N206   2.077   1_565  S
Co186       N193   2.090   1_565  S
Co186      Cl531   2.449   1_554  S
C187        N225   1.346       .  A
C187        C282   1.440       .  S
N188        N195   1.322       .  A
N188        N218   1.325       .  A
N188       Co221   2.087       .  S
N189        N225   1.325       .  A
N189        N510   1.320       .  A
N190        C219   1.347       .  A
N190        N200   1.325       .  A
H191        C216   1.082       .  S
N192        N213   1.322       .  A
N192       Co487   2.071   1_554  S
N193        N198   1.324       .  A
N193        N514   1.322       .  A
C194        N198   1.347       .  A
C194        C234   1.431       .  S
C194        C222   1.451       .  S
N195        C210   1.340       .  A
N195       Co217   2.086       .  S
C196        N224   1.340       .  A
C196        C199   1.453       .  S
C196        H230   1.082       .  S
C199        N220   1.348       .  A
C199        C260   1.434       .  S
N200        N206   1.319       .  A
N200       Co487   2.083   1_544  S
N201        C227   1.342       .  A
N201        N203   1.321       .  A
N201       Co217   2.084   1_545  S
N202        C216   1.346       .  A
N203        N231   1.330       .  A
N203       Co221   2.111   1_545  S
H204        C227   1.082       .  S
H205        C525   1.082       .  S
N207        C486   1.347       .  A
N207        N492   1.321       .  A
N207       Co221   2.109       .  S
N208        N220   1.325       .  A
N208        N224   1.322       .  A
N208       Co217   2.088   1_545  S
C209        N213   1.343       .  A
C209        C299   1.429       .  S
C209        C223   1.457       .  S
C210        C229   1.454       .  S
C210        H214   1.081       .  S
N211        C525   1.343       .  A
N211        N496   1.322       .  A
N211       Co221   2.091   1_545  S
H212        C486   1.082       .  S
C215        N231   1.354       .  A
C215        C242   1.450       .  S
C215        C227   1.454       .  S
Co217      Cl228   2.450       .  S
N218        C229   1.348       .  A
C219        C256   1.434       .  S
Co221      Cl228   2.462       .  S
C222        N514   1.340       .  A
C222        H508   1.081   1_554  S
Cl228      Co489   2.450       .  S
C229        C290   1.434       .  S
C232        C233   1.213       .  T
C234        C235   1.203       .  T
C236        C237   1.338       .  D
C236        H238   1.087       .  S
C237        H239   1.087       .  S
C240        C241   1.201       .  T
C242        C243   1.214       .  T
C244        C245   1.207       .  T
C246        C247   1.205       .  T
C248        C249   1.207       .  T
C250        C251   1.344       .  D
C250        H252   1.087       .  S
C251        H253   1.087       .  S
C254        C255   1.208       .  T
C256        C257   1.205       .  T
C258        C259   1.204       .  T
C260        C261   1.204       .  T
C262        C263   1.345       .  D
C262        H264   1.087       .  S
C263        H265   1.086       .  S
C266        C267   1.205       .  T
C268        C269   1.204       .  T
C270        C271   1.205       .  T
C272        C273   1.345       .  D
C272        H274   1.087       .  S
C273        H275   1.087       .  S
C276        C277   1.209       .  T
C278        C279   1.209       .  T
C280        C281   1.205       .  T
C282        C283   1.208       .  T
C284        C285   1.206       .  T
C286        C287   1.344       .  D
C286        H288   1.086       .  S
C287        H289   1.087       .  S
C290        C291   1.205       .  T
C292        C293   1.202       .  T
C294        C295   1.213       .  T
C296        C297   1.214       .  T
C298        C299   1.202       .  T
C300        C301   1.337       .  D
C300        H302   1.087       .  S
C301        H303   1.087       .  S
C304        N305   1.356       .  A
C304        N309   1.359       .  A
C304        C599   1.436       .  S
N305        C306   1.356       .  A
C306        N307   1.357       .  A
C306        C601   1.435       .  S
N307        C308   1.361       .  A
C308        N309   1.359       .  A
C308        C603   1.481       .  S
C310        N311   1.357       .  A
C310        N315   1.360       .  A
C310        C595   1.439       .  S
N311        C312   1.356       .  A
C312        N313   1.357       .  A
C312        C598   1.437       .  S
N313        C314   1.359       .  A
C314        N315   1.362       .  A
C314        C604   1.480       .  S
C316        N317   1.351       .  A
C316        N321   1.354       .  A
C316        C594   1.426       .  S
N317        C318   1.352       .  A
C318        N319   1.369       .  A
C318        C589   1.482       .  S
N319        C320   1.367       .  A
C320        N321   1.357       .  A
C320        C587   1.446       .  S
C322        N323   1.357       .  A
C322        N327   1.368       .  A
C322        C586   1.446       .  S
N323        C324   1.354       .  A
C324        N325   1.350       .  A
C324        C584   1.425       .  S
N325        C326   1.352       .  A
C326        N327   1.369       .  A
C326        C590   1.482       .  S
C328        N329   1.357       .  A
C328        N333   1.364       .  A
C328        C581   1.444       .  S
N329        C330   1.355       .  A
C330        N331   1.351       .  A
C330        C579   1.427       .  S
N331        C332   1.353       .  A
C332        N333   1.367       .  A
C332        C576   1.478       .  S
C334        N335   1.357       .  A
C334        N339   1.352       .  A
C334        C573   1.430       .  S
N335        C336   1.359       .  A
C336        N337   1.363       .  A
C336        C572   1.446       .  S
N337        C338   1.366       .  A
C338        N339   1.353       .  A
C338        C575   1.479       .  S
C340        N341   1.355       .  A
C340        N345   1.364       .  A
C340        C569   1.441       .  S
N341        C342   1.353       .  A
C342        N343   1.351       .  A
C342        C564   1.423       .  S
N343        C344   1.353       .  A
C344        N345   1.367       .  A
C344        C565   1.476       .  S
C346        N347   1.354       .  A
C346        N351   1.351       .  A
C346        C561   1.423       .  S
N347        C348   1.356       .  A
C348        N349   1.363       .  A
C348        C560   1.439       .  S
N349        C350   1.365       .  A
C350        N351   1.352       .  A
C350        C566   1.477       .  S
C352        N353   1.367       .  A
C352        N357   1.357       .  A
C352        C558   1.449       .  S
N353        C354   1.369       .  A
C354        N355   1.354       .  A
C354        C553   1.484       .  S
N355        C356   1.352       .  A
C356        N357   1.354       .  A
C356        C552   1.429       .  S
C358        N359   1.357       .  A
C358        N363   1.350       .  A
C358        C550   1.431       .  S
N359        C360   1.360       .  A
C360        N361   1.368       .  A
C360        C547   1.451       .  S
N361        C362   1.369       .  A
C362        N363   1.352       .  A
C362        C554   1.483       .  S
C364        N365   1.358       .  A
C364        N369   1.360       .  A
C364        C546   1.440       .  S
N365        C366   1.357       .  A
C366        N367   1.355       .  A
C366        C543   1.434       .  S
N367        C368   1.357       .  A
C368        N369   1.362       .  A
C368        C539   1.478       .  S
C370        N371   1.356       .  A
C370        N375   1.358       .  A
C370        C538   1.437       .  S
N371        C372   1.356       .  A
C372        N373   1.358       .  A
C372        C535   1.437       .  S
N373        C374   1.362       .  A
C374        N375   1.359       .  A
C374        C540   1.480       .  S
C376        N394   1.345       .  A
C376        C600   1.436       .  S
C376        C413   1.457       .  S
N377        N394   1.324       .  A
N377       Co414   2.078       .  S
C378        N403   1.343       .  A
C378        C416   1.455       .  S
C378        H423   1.082       .  S
H379        C420   1.082       .  S
C380        N404   1.344       .  A
C380        C384   1.458       .  S
C380        H409   1.082       .  S
Co381       N399   2.108   1_556  S
Co381       N389   2.096       .  S
Co381       N421   2.089       .  S
Co381       N397   2.109       .  S
Co381      Cl425   2.462       .  S
N382        C420   1.341       .  A
N382        N389   1.323       .  A
N382       Co383   2.088       .  S
Co383       N386   2.092       .  S
Co383       N403   2.087       .  S
Co383       N390   2.090       .  S
Co383      Cl425   2.456       .  S
C384        N422   1.350       .  A
C384        C571   1.446       .  S
N385        N392   1.321       .  A
N385        N415   1.322       .  A
N386        N404   1.321       .  A
N386        N422   1.327       .  A
N387        C416   1.354       .  A
N387        N397   1.330       .  A
N389        N410   1.327       .  A
N390        N408   1.321       .  A
N390        N395   1.325       .  A
C391        N395   1.349       .  A
C391        C544   1.434       .  S
C391        C419   1.452       .  S
N392        C407   1.341       .  A
N392       Co414   2.084       .  S
C393        C396   1.452       .  S
C396        N417   1.346       .  A
C396        C551   1.429       .  S
N397        N403   1.321       .  A
N398        C424   1.341       .  A
N398        N400   1.320       .  A
N398       Co414   2.080       .  S
N400        N428   1.326       .  A
H401        C424   1.082       .  S
H402        C419   1.081       .  S
N404       Co418   2.094       .  S
N405        N417   1.323       .  A
N405       Co414   2.084       .  S
C406        N410   1.350       .  A
C406        C596   1.439       .  S
C406        C420   1.454       .  S
C407        C426   1.454       .  S
C407        H411   1.081       .  S
N408        C419   1.339       .  A
N408       Co418   2.079       .  S
C412        N428   1.348       .  A
C412        C536   1.437       .  S
C412        C424   1.454       .  S
N415        C426   1.344       .  A
C416        C548   1.452       .  S
Co418      Cl425   2.457       .  S
C426        C580   1.427       .  S
C429        N447   1.344       .  A
C429        C574   1.431       .  S
C429        C466   1.455       .  S
N430        N447   1.323   1_655  A
N430        N452   1.322       .  A
N430       Co467   2.076       .  S
C431        N456   1.338       .  A
C431        C469   1.448       .  S
C431        H476   1.081       .  S
H432        C473   1.082       .  S
C433        N457   1.339       .  A
C433        C437   1.452       .  S
C433        H462   1.081       .  S
Co434       N452   2.090       .  S
Co434       N442   2.086       .  S
Co434       N474   2.079       .  S
Co434       N450   2.095       .  S
Co434      Cl478   2.452       .  S
N435        C473   1.345       .  A
N435        N442   1.320   1_455  A
N435       Co436   2.097   1_455  S
Co436       N456   2.073       .  S
Co436      Cl478   2.454       .  S
C437        N475   1.344       .  A
C437        C583   1.426       .  S
N438        N468   1.326       .  A
N438       Co471   2.088   1_455  S
N439        N457   1.322       .  A
N439        N475   1.323       .  A
N440        C469   1.350       .  A
N440        N450   1.326       .  A
H441        C466   1.081       .  S
N442        N463   1.327   1_655  A
N443        N461   1.320       .  A
N443        N448   1.329       .  A
C444        N448   1.352       .  A
C444        C557   1.450       .  S
C444        C472   1.456       .  S
N445       Co467   2.095   1_554  S
C446        N474   1.340       .  A
C446        C449   1.451       .  S
C446        H480   1.082       .  S
C449        N470   1.352       .  A
C449        C570   1.442       .  S
N450        N456   1.321       .  A
N451        C477   1.338       .  A
N451        N453   1.322       .  A
N452        C466   1.341   1_655  A
N453        N481   1.323       .  A
N453       Co471   2.079       .  S
H455        C472   1.082       .  S
N457       Co471   2.079   1_455  S
N458        N470   1.329       .  A
N458        N474   1.321       .  A
N458       Co467   2.101       .  S
C459        N463   1.348       .  A
C459        C588   1.447       .  S
C459        C473   1.461       .  S
C460        C479   1.461       .  S
N461        C472   1.344       .  A
N461       Co471   2.089       .  S
C465        N481   1.346       .  A
C465        C562   1.424       .  S
C465        C477   1.449       .  S
Co467      Cl478   2.456       .  S
N468        C479   1.347       .  A
C469        C549   1.432       .  S
C479        C582   1.445       .  S
C482        N500   1.347       .  A
C482        C597   1.437       .  S
C482        C519   1.456       .  S
N483        N500   1.325       .  A
N483        N505   1.319       .  A
N483       Co520   2.081       .  S
C484        N509   1.340       .  A
C484        C522   1.451       .  S
C484        H529   1.082       .  S
H485        C526   1.081       .  S
C486        C490   1.464       .  S
Co487       N505   2.084       .  S
Co487       N527   2.070   1_565  S
Co487      Cl531   2.449       .  S
N488        C526   1.341       .  A
N488        N495   1.322       .  A
N488       Co489   2.086       .  S
Co489       N492   2.077       .  S
Co489       N509   2.074   1_565  S
Co489       N496   2.086   1_565  S
C490        N528   1.345       .  A
C490        C585   1.447       .  S
N491        N498   1.322       .  A
N491        N521   1.323       .  A
N491       Co524   2.078       .  S
N492        N528   1.325       .  A
N493        C522   1.351       .  A
N493        N503   1.328       .  A
H494        C519   1.082       .  S
N495        N516   1.325       .  A
N496        N501   1.324       .  A
C497        N501   1.346       .  A
C497        C537   1.437       .  S
C497        C525   1.458       .  S
N498        C513   1.339       .  A
N498       Co520   2.080       .  S
C499        N527   1.337       .  A
C499        C502   1.449       .  S
C499        H533   1.081       .  S
C502        N523   1.346       .  A
C502        C563   1.424       .  S
N503        N509   1.320       .  A
N504        C530   1.340       .  A
N504        N506   1.320       .  A
N504       Co520   2.077   1_545  S
N505        C519   1.342       .  A
N506        N534   1.328       .  A
N506       Co524   2.096   1_545  S
H507        C530   1.081       .  S
N510       Co524   2.094   1_554  S
N511        N523   1.323       .  A
N511        N527   1.321       .  A
N511       Co520   2.082   1_545  S
C512        N516   1.347       .  A
C512        C602   1.435       .  S
C512        C526   1.454       .  S
C513        C532   1.452       .  S
C513        H517   1.081       .  S
N514       Co524   2.077   1_544  S
C518        N534   1.350       .  A
C518        C545   1.440       .  S
C518        C530   1.451       .  S
Co520      Cl531   2.449       .  S
N521        C532   1.345       .  A
C522        C559   1.440       .  S
Co524      Cl531   2.454       .  S
C532        C593   1.427       .  S
C535        C536   1.206       .  T
C537        C538   1.206       .  T
C539        C540   1.344       .  D
C539        H541   1.087       .  S
C540        H542   1.087       .  S
C543        C544   1.205       .  T
C545        C546   1.208       .  T
C547        C548   1.215       .  T
C549        C550   1.204       .  T
C551        C552   1.202       .  T
C553        C554   1.338       .  D
C553        H555   1.087       .  S
C554        H556   1.087       .  S
C557        C558   1.214       .  T
C559        C560   1.208       .  T
C561        C562   1.198       .  T
C563        C564   1.198       .  T
C565        C566   1.337       .  D
C565        H567   1.087       .  S
C566        H568   1.087       .  S
C569        C570   1.209       .  T
C571        C572   1.212       .  T
C573        C574   1.203       .  T
C575        C576   1.337       .  D
C575        H577   1.087       .  S
C576        H578   1.087       .  S
C579        C580   1.200       .  T
C581        C582   1.211       .  T
C583        C584   1.200       .  T
C585        C586   1.213       .  T
C587        C588   1.212       .  T
C589        C590   1.337       .  D
C589        H591   1.087       .  S
C590        H592   1.087       .  S
C593        C594   1.200       .  T
C595        C596   1.208       .  T
C597        C598   1.207       .  T
C599        C600   1.206       .  T
C601        C602   1.205       .  T
C603        C604   1.346       .  D
C603        H605   1.086       .  S
C604        H606   1.087       .  S
