geometry optimzed in LAMMPS
_audit_creation_date              2020-11-30 
_audit_creation_method            'lammps2cif' 
_symmetry_space_group_name_H-M    'P1' 
_symmetry_Int_Tables_number       1 
_symmetry_cell_setting            triclinic 
loop_ 
_symmetry_equiv_pos_as_xyz 
  x,y,z 
_cell_length_a                    42.04663577598643 
_cell_length_b                    41.9331374985761 
_cell_length_c                    31.524349861397415 
_cell_angle_alpha                 90.0635686434286 
_cell_angle_beta                  90.06574042524228 
_cell_angle_gamma                 120.05074135645964 
loop_ 
_atom_site_label 
_atom_site_type_symbol 
_atom_site_fract_x 
_atom_site_fract_y 
_atom_site_fract_z 
_atom_site_charge 
C1          C  0.50833617  0.72461618  0.10337312     0.03090
C2          C  0.50394543  0.75134360  0.08146676    -0.13060
C3          C  0.50281638  0.77978374  0.10360506     0.00590
C4          C  0.50249699  0.77928727  0.14803240    -0.11580
C5          C  0.50906567  0.75426849  0.17083786     0.03080
C6          C  0.51420912  0.72851573  0.14746587    -0.11000
H7          H  0.50095267  0.74992699  0.04728523     0.08680
H8          H  0.49640628  0.79828579  0.16426381     0.06210
H9          H  0.52195832  0.71061442  0.16331380     0.06050
C10         C  0.49751986  0.72009933  0.28519088     0.03090
C11         C  0.50089046  0.72156431  0.24103262    -0.13060
C12         C  0.50818902  0.75356295  0.21852134     0.00590
C13         C  0.51276941  0.78421751  0.24215482    -0.11580
C14         C  0.50665894  0.78194353  0.28621627     0.03080
C15         C  0.49857977  0.74941432  0.30741834    -0.11000
H16         H  0.49719771  0.69719093  0.22491093     0.08680
H17         H  0.52044803  0.81003776  0.22662587     0.06210
H18         H  0.49228468  0.74624532  0.34091289     0.06050
C19         C  0.25308638  0.78484894  0.28389922     0.03090
C20         C  0.24988779  0.78662154  0.23960979    -0.13060
C21         C  0.22336118  0.75619416  0.21599277     0.00590
C22         C  0.19754243  0.72496061  0.23896408    -0.11580
C23         C  0.19863941  0.72408260  0.28332309     0.03080
C24         C  0.22706024  0.75331801  0.30555376    -0.11000
H25         H  0.26869354  0.81211191  0.22407237     0.08680
H26         H  0.17646922  0.70064574  0.22326666     0.06210
H27         H  0.22896850  0.75107782  0.33956567     0.06050
C28         C  0.25497648  0.78314167  0.10061593     0.03090
C29         C  0.25460739  0.78297075  0.14511567    -0.13060
C30         C  0.22346748  0.75674130  0.16803429     0.00590
C31         C  0.19321915  0.73003066  0.14429827    -0.11580
C32         C  0.19447368  0.72893872  0.09992552     0.03080
C33         C  0.22492339  0.75602807  0.07812876    -0.11000
H34         H  0.27932415  0.80314645  0.16101273     0.08680
H35         H  0.16845267  0.70932284  0.15944556     0.06210
H36         H  0.22578724  0.75524119  0.04378933     0.06050
C37         C  0.19294775  0.46947078  0.10065153     0.03090
C38         C  0.21846943  0.46360055  0.07862338    -0.13060
C39         C  0.24641079  0.46137799  0.10035183     0.00590
C40         C  0.24636564  0.46141262  0.14498127    -0.11580
C41         C  0.22001547  0.46563674  0.16834988     0.03080
C42         C  0.19448244  0.47123190  0.14515900    -0.11000
H43         H  0.21712299  0.46148597  0.04435456     0.08680
H44         H  0.26785344  0.45923910  0.16082004     0.06210
H45         H  0.17605081  0.47813583  0.16116939     0.06050
C46         C  0.19213494  0.47078509  0.28309943     0.03090
C47         C  0.18993400  0.46349149  0.23923765    -0.13060
C48         C  0.22019840  0.46645279  0.21632007     0.00590
C49         C  0.25068468  0.47096918  0.23998865    -0.11580
C50         C  0.25129836  0.47331672  0.28433515     0.03080
C51         C  0.22300708  0.47516759  0.30548952    -0.11000
H52         H  0.16435219  0.45570163  0.22329313     0.08680
H53         H  0.27472161  0.47326470  0.22490246     0.06210
H54         H  0.22521807  0.47992596  0.33940194     0.06050
C55         C  0.77381274  0.26258969  0.28407223     0.03090
C56         C  0.77672600  0.25928132  0.24018378    -0.13060
C57         C  0.74791454  0.23048063  0.21667791     0.00590
C58         C  0.71767052  0.20332181  0.23968015    -0.11580
C59         C  0.71480771  0.20614756  0.28367808     0.03080
C60         C  0.74282628  0.23606898  0.30569372    -0.11000
H61         H  0.80171177  0.27972693  0.22508852     0.08680
H62         H  0.69573364  0.17965964  0.22413979     0.06210
H63         H  0.74057933  0.23866399  0.33962553     0.06050
C64         C  0.77459542  0.26194714  0.10124749     0.03090
C65         C  0.77290193  0.26171825  0.14581684    -0.13060
C66         C  0.74872453  0.22975002  0.16874596     0.00590
C67         C  0.72377966  0.19841463  0.14503124    -0.11580
C68         C  0.72297567  0.19940994  0.10063343     0.03080
C69         C  0.74944724  0.23034015  0.07886628    -0.11000
H70         H  0.79011652  0.28736418  0.16208508     0.08680
H71         H  0.70367962  0.17326313  0.16009229     0.06210
H72         H  0.74965111  0.22976694  0.04454929     0.06050
C73         C  0.71467640  0.51353246  0.09998384     0.03090
C74         C  0.74290683  0.51171043  0.07861218    -0.13060
C75         C  0.77420282  0.51728917  0.10058236     0.00590
C76         C  0.77742359  0.52527838  0.14408195    -0.11580
C77         C  0.74768346  0.52302180  0.16733823     0.03080
C78         C  0.71659272  0.51779446  0.14430856    -0.11000
H79         H  0.74013269  0.50488684  0.04516520     0.08680
H80         H  0.80289178  0.53159301  0.15945001     0.06210
H81         H  0.69305476  0.51595388  0.16032599     0.06050
C82         C  0.71737238  0.51972709  0.28300162     0.03090
C83         C  0.72225306  0.52748916  0.23912920    -0.13060
C84         C  0.74763099  0.52227594  0.21513716     0.00590
C85         C  0.77116702  0.51326537  0.23724225    -0.11580
C86         C  0.76970862  0.50962692  0.28138220     0.03080
C87         C  0.74194358  0.51141406  0.30391278    -0.11000
H88         H  0.70545764  0.53685487  0.22379799     0.08680
H89         H  0.79070235  0.50821112  0.22076268     0.06210
H90         H  0.73937353  0.50549320  0.33746259     0.06050
C91         C  0.45437291  0.19814149  0.28468716     0.03090
C92         C  0.44334803  0.19359574  0.24179780    -0.13060
C93         C  0.44519102  0.22304077  0.21800834     0.00590
C94         C  0.45147707  0.25481382  0.24036130    -0.11580
C95         C  0.45738395  0.25763765  0.28418578     0.03080
C96         C  0.46055509  0.23029555  0.30585276    -0.11000
H97         H  0.43455062  0.16731304  0.22685065     0.08680
H98         H  0.45294470  0.27823702  0.22428855     0.06210
H99         H  0.46851401  0.23471046  0.33895362     0.06050
C100        C  0.45865101  0.20066371  0.10423994     0.03090
C101        C  0.45378042  0.19839780  0.14820436    -0.13060
C102        C  0.44548967  0.22258886  0.17018339     0.00590
C103        C  0.44205019  0.24912690  0.14612045    -0.11580
C104        C  0.45299733  0.25582524  0.10321344     0.03080
C105        C  0.46042844  0.23054951  0.08234653    -0.11000
H106        H  0.45771315  0.17810567  0.16473333     0.08680
H107        H  0.43183815  0.26543486  0.16086391     0.06210
H108        H  0.46800798  0.23400504  0.04918286     0.06050
O109        O  0.51809138  0.58761265  0.02403827    -0.75330
O110        O  0.46721166  0.58002846  0.48876476    -0.54240
C111        C  0.49422906  0.59715460  0.01465670     0.78400
O112        O  0.57573256  0.52406783  0.35664413    -0.59930
O113        O  0.57169149  0.47644300  0.39603884    -0.52960
C114        C  0.58675835  0.50165230  0.36752886     0.70410
O115        O  0.51485967  0.58659700  0.36126652    -0.74490
O116        O  0.46442613  0.57837771  0.39761140    -0.55050
C117        C  0.49071131  0.59565560  0.37094706     0.76420
O118        O  0.57757132  0.52325325  0.02515540    -0.59630
O119        O  0.56915095  0.47233154  0.48884887    -0.52750
C120        C  0.58605286  0.49854772  0.01583075     0.73010
Zr121      Zr  0.53057419  0.53841730  0.50547082     2.54710
O122        O  0.58926286  0.59569835  0.50453655    -0.80200
O123        O  0.52856174  0.53637397  0.08266752    -0.93620
Zr124      Zr  0.52912709  0.53864544  0.37934586     2.64680
O125        O  0.58697784  0.59687453  0.38082868    -0.98570
O126        O  0.52655524  0.53745427  0.30214564    -0.80630
O127        O  0.51281035  0.55693466  0.44304139    -0.83990
O128        O  0.54829760  0.52150761  0.44179483    -2.18700
O129        O  0.45238872  0.39777380  0.02675083    -0.67380
O130        O  0.49883042  0.40172664  0.48540930    -0.51940
C131        C  0.47443997  0.38667028  0.01469428     0.71390
O132        O  0.38651705  0.45861051  0.36189403    -0.60290
O133        O  0.39439900  0.50821491  0.39982993    -0.52260
C134        C  0.37716241  0.48258687  0.37235706     0.73190
O135        O  0.44950193  0.39664913  0.35870105    -0.71680
O136        O  0.50045800  0.40442753  0.39391628    -0.50360
C137        C  0.47406387  0.38773980  0.36716542     0.74580
O138        O  0.38579955  0.45437611  0.02211433    -0.67010
O139        O  0.39438599  0.50643855  0.48950982    -0.54210
C140        C  0.37612156  0.47836088  0.01373164     0.72960
Zr141      Zr  0.43641397  0.44390066  0.50576410     2.77540
O142        O  0.37960834  0.38470437  0.50808950    -0.97760
O143        O  0.43960132  0.44969272  0.08270317    -0.78580
Zr144      Zr  0.43486716  0.44416427  0.37936040     2.70070
O145        O  0.37722962  0.38583177  0.37762394    -0.79830
O146        O  0.43786156  0.44910074  0.30235956    -0.98910
Zr147      Zr  0.44756870  0.52635375  0.44403842     2.21500
Zr148      Zr  0.51801912  0.45591611  0.44129337     2.11130
O149        O  0.45255433  0.42560329  0.44194819    -2.47600
O150        O  0.41732300  0.46095241  0.44325533    -0.79620
O151        O  0.50144217  0.47316330  0.00596409    -0.71820
O152        O  0.46411741  0.50930693  0.37910914    -2.32770
O153        O  0.46548030  0.50908478  0.00775123    -2.28980
O154        O  0.49998636  0.47337908  0.37770938    -0.73580
H155        H  0.57466816  0.53218704  0.44158116     0.78420
H156        H  0.45581141  0.51736938  0.35498224     0.79510
H157        H  0.44189883  0.39915888  0.44176736     0.81730
H158        H  0.45756966  0.51695543  0.03239988     0.79340
H159        H  0.50089549  0.53042076  0.29517365     0.42380
H160        H  0.46217371  0.45228641  0.29499551     0.41350
H161        H  0.36867817  0.38168279  0.40742034     0.41020
H162        H  0.38418475  0.36814546  0.48992121     0.38960
H163        H  0.46527804  0.45685038  0.08979912     0.42090
H164        H  0.50604125  0.53700550  0.09025386     0.36870
H165        H  0.58867849  0.60804449  0.47802987     0.42990
H166        H  0.60389869  0.59186076  0.39763196     0.39410
H167        H  0.37854692  0.37557759  0.03730519     0.44320
H168        H  0.54898327  0.56072057  0.09163998     0.43050
H169        H  0.59636359  0.60019589  0.35142466     0.43180
H170        H  0.41997122  0.42403174  0.29219267     0.43540
O171        O  0.04675385  0.59099050  0.36083330    -0.75330
O172        O  0.08936479  0.58258931  0.39605163    -0.54240
C173        C  0.08014415  0.59996419  0.36970598     0.78400
O174        O  0.92253537  0.52997385  0.02493228    -0.59930
O175        O  0.87965611  0.47913439  0.48885961    -0.52960
C176        C  0.88924028  0.50565717  0.01546804     0.70410
O177        O  0.04639309  0.59373397  0.02195734    -0.74490
O178        O  0.08902567  0.58477917  0.48736924    -0.55050
C179        C  0.07967787  0.60291189  0.01244168     0.76420
O180        O  0.92208553  0.52655695  0.35810105    -0.59630
O181        O  0.87929775  0.47751036  0.39555700    -0.52750
C182        C  0.88856561  0.50271031  0.36728874     0.73010
Zr183      Zr  0.98440231  0.54299102  0.37941695     2.54710
O184        O  0.98326755  0.60045139  0.38107580    -0.80200
O185        O  0.98505304  0.54217469  0.30219716    -0.93620
Zr186      Zr  0.98447416  0.54414132  0.50523559     2.64680
O187        O  0.98468075  0.60233586  0.50515651    -0.98570
O188        O  0.98524808  0.54182198  0.08240891    -0.80630
O189        O  0.02005525  0.56159095  0.44232591    -0.83990
O190        O  0.94881246  0.52643858  0.44222966    -2.18700
O191        O  0.92150234  0.40069344  0.35991355    -0.67380
O192        O  0.87900493  0.40822753  0.39663971    -0.51940
C193        C  0.88815127  0.39142468  0.36934775     0.71390
O194        O  0.04548374  0.46161317  0.02353096    -0.60290
O195        O  0.08898203  0.51261661  0.48937397    -0.52260
C196        C  0.07907981  0.48559934  0.01536572     0.73190
O197        O  0.92258613  0.40281931  0.02646287    -0.71680
O198        O  0.87931035  0.40880034  0.48983825    -0.50360
C199        C  0.88906491  0.39278613  0.01752383     0.74580
O200        O  0.04539206  0.46177020  0.36040814    -0.67010
O201        O  0.08861116  0.51091831  0.39848915    -0.54210
C202        C  0.07875633  0.48497027  0.37097455     0.72960
Zr203      Zr  0.98370203  0.44815407  0.37995229     2.77540
O204        O  0.98377892  0.39011933  0.37943551    -0.97760
O205        O  0.98376301  0.45172242  0.30288128    -0.78580
Zr206      Zr  0.98419801  0.44968333  0.50618529     2.70070
O207        O  0.98210611  0.39074438  0.51089773    -0.79830
O208        O  0.98701033  0.45672361  0.08299098    -0.98910
Zr209      Zr  0.05477472  0.53088384  0.44289890     2.21500
Zr210      Zr  0.91374869  0.46075807  0.44288002     2.11130
O211        O  0.94862998  0.43024699  0.44321180    -2.47600
O212        O  0.01931147  0.46548353  0.44307933    -0.79620
O213        O  0.94825639  0.47775584  0.37877251    -0.71820
O214        O  0.02027396  0.51476173  0.00702263    -2.32770
O215        O  0.01987997  0.51333042  0.37872491    -2.28980
O216        O  0.94840430  0.47889372  0.00698570    -0.73580
H217        H  0.93304031  0.53704137  0.44180266     0.78420
H218        H  0.03632522  0.52288126  0.03146453     0.79510
H219        H  0.93283556  0.40381027  0.44354070     0.81730
H220        H  0.03578264  0.52107397  0.35422988     0.79340
H221        H  0.00843801  0.54234879  0.08956645     0.42380
H222        H  0.96478275  0.45795645  0.09044712     0.41350
H223        H  0.98773754  0.38617246  0.48179031     0.41020
H224        H  0.96321701  0.37362462  0.39823622     0.38960
H225        H  0.96731432  0.46163444  0.29641188     0.42090
H226        H  0.00737278  0.54112562  0.29471255     0.36870
H227        H  0.99823047  0.61371695  0.40621244     0.42990
H228        H  0.96378907  0.59798559  0.48673186     0.39410
H229        H  0.97536189  0.38002185  0.35057597     0.44320
H230        H  0.99077624  0.56725637  0.29385299     0.43050
H231        H  0.97689177  0.60450693  0.03413509     0.43180
H232        H  0.98215135  0.43257571  0.09395209     0.43540
O233        O  0.52159944  0.93285888  0.36115058    -0.75330
O234        O  0.47013790  0.88958632  0.39560497    -0.54240
C235        C  0.49718798  0.89944213  0.36988516     0.78400
O236        O  0.58228788  0.05368494  0.02578998    -0.59930
O237        O  0.57519036  0.09730554  0.49073215    -0.52960
C238        C  0.59216045  0.08734620  0.01685085     0.70410
O239        O  0.51822483  0.92927725  0.02323474    -0.74490
O240        O  0.46781862  0.88753885  0.48659677    -0.55050
C241        C  0.49391125  0.89592128  0.01331691     0.76420
O242        O  0.58231442  0.05700386  0.36201172    -0.59630
O243        O  0.57370295  0.09934568  0.39826617    -0.52750
C244        C  0.59093104  0.09022190  0.37175340     0.73010
Zr245      Zr  0.53430152  0.99450338  0.38009417     2.54710
O246        O  0.59258221  0.99531177  0.37967135    -0.80200
O247        O  0.53145270  0.99512008  0.30295454    -0.93620
Zr248      Zr  0.53312815  0.99221408  0.50617542     2.64680
O249        O  0.58992280  0.99000637  0.50713362    -0.98570
O250        O  0.52992865  0.99214380  0.08330261    -0.80630
O251        O  0.51628855  0.95779959  0.44227678    -0.83990
O252        O  0.55214111  0.02881215  0.44395378    -2.18700
O253        O  0.45616670  0.05693177  0.35926290    -0.67380
O254        O  0.50320373  0.09939348  0.40039728    -0.51940
C255        C  0.47853659  0.09011149  0.37136588     0.71390
O256        O  0.38968181  0.93123828  0.02212096    -0.60290
O257        O  0.39871263  0.88848120  0.48769176    -0.52260
C258        C  0.38090623  0.89782150  0.01318606     0.73190
O259        O  0.45385471  0.05568358  0.02575427    -0.71680
O260        O  0.50473776  0.09875688  0.49122502    -0.50360
C261        C  0.47800014  0.08937640  0.01719249     0.74580
O262        O  0.39120417  0.93326605  0.36000689    -0.67010
O263        O  0.39781012  0.88962006  0.39595874    -0.54210
C264        C  0.38134295  0.89972626  0.36940089     0.72960
Zr265      Zr  0.44024833  0.99469432  0.37964278     2.77540
O266        O  0.38291589  0.99586618  0.37907350    -0.97760
O267        O  0.44329120  0.99380425  0.30257406    -0.78580
Zr268      Zr  0.43940892  0.99338123  0.50605478     2.70070
O269        O  0.38231658  0.99481112  0.50941591    -0.79830
O270        O  0.44312941  0.99129518  0.08297565    -0.98910
Zr271      Zr  0.45095536  0.92322162  0.44157763     2.21500
Zr272      Zr  0.52210797  0.06426872  0.44464008     2.11130
O273        O  0.45673396  0.02931361  0.44347195    -2.47600
O274        O  0.42109609  0.95862682  0.44221819    -0.79620
O275        O  0.50535638  0.03065127  0.37966340    -0.71820
O276        O  0.46806281  0.95699601  0.00648497    -2.32770
O277        O  0.46916202  0.95861973  0.37799631    -2.28980
O278        O  0.50450856  0.02882369  0.00817115    -0.73580
H279        H  0.57852804  0.04443593  0.44413483     0.78420
H280        H  0.45969420  0.94063898  0.03061715     0.79510
H281        H  0.44618582  0.04514839  0.44362618     0.81730
H282        H  0.46122480  0.94285190  0.35328042     0.79340
H283        H  0.50690938  0.96923102  0.09043507     0.42380
H284        H  0.46769698  0.01223496  0.09019564     0.41350
H285        H  0.37125998  0.98663343  0.48090031     0.41020
H286        H  0.38750576  0.01679795  0.39767190     0.38960
H287        H  0.46930920  0.01150540  0.29584268     0.42090
H288        H  0.50884309  0.97193342  0.29531998     0.36870
H289        H  0.59325856  0.98440257  0.40726121     0.42990
H290        H  0.60694452  0.01045037  0.48848185     0.39410
H291        H  0.38130897  0.00409979  0.35012570     0.44320
H292        H  0.55175953  0.99132661  0.29346243     0.43050
H293        H  0.59994267  0.99808652  0.03608145     0.43180
H294        H  0.42569024  0.99885330  0.09345874     0.43540
C295        C  0.47647806  0.35508159  0.07988572    -0.26360
C296        C  0.47063358  0.35376807  0.03612426    -0.14430
C297        C  0.45885659  0.32053621  0.01399885     0.36200
C298        C  0.45201257  0.28875098  0.03657813    -0.25800
C299        C  0.45827618  0.28978762  0.08072972    -0.15040
C300        C  0.47161039  0.32400384  0.10211252     0.37290
N301        N  0.48171979  0.32803984  0.14603066    -0.89290
H302        H  0.48583237  0.38078714  0.09684224     0.18400
H303        H  0.44140800  0.26305251  0.01940553     0.18390
N304        N  0.45348444  0.31912003  0.46881116    -0.88320
H305        H  0.46620308  0.33734279  0.16223492     0.35770
H306        H  0.50942191  0.34825820  0.14866554     0.40870
H307        H  0.43194519  0.32416192  0.46272907     0.40490
H308        H  0.44522157  0.29274491  0.45713901     0.35370
C309        C  0.49561847  0.18299987  0.05846127    -0.26360
C310        C  0.46342930  0.17236643  0.08161666    -0.14430
C311        C  0.43581678  0.13484701  0.08229476     0.36200
C312        C  0.44143467  0.10880771  0.06122686    -0.25800
C313        C  0.47391460  0.11898695  0.03845113    -0.15040
C314        C  0.50108974  0.15693372  0.03638478     0.37290
N315        N  0.53412488  0.16914050  0.51214973    -0.89290
H316        H  0.51655252  0.21187593  0.05751270     0.18400
H317        H  0.41973298  0.08025170  0.06247019     0.18390
N318        N  0.40115024  0.12244825  0.10277073    -0.88320
H319        H  0.55211780  0.19733074  0.51663392     0.35770
H320        H  0.52675117  0.16589725  0.48008178     0.40870
H321        H  0.38936384  0.13738578  0.09072414     0.40490
H322        H  0.40535552  0.12728931  0.13532609     0.35370
C323        C  0.49533865  0.32310482  0.30440697    -0.26360
C324        C  0.46160671  0.29023619  0.30696528    -0.14430
C325        C  0.43205075  0.28962075  0.32909811     0.36200
C326        C  0.43709553  0.32208465  0.34792690    -0.25800
C327        C  0.47085714  0.35507065  0.34548838    -0.15040
C328        C  0.50049993  0.35554383  0.32346492     0.37290
N329        N  0.53555757  0.38838986  0.31807397    -0.89290
H330        H  0.51778769  0.32365364  0.28689525     0.18400
H331        H  0.41444241  0.32143079  0.36509773     0.18390
N332        N  0.39668474  0.25683732  0.33314485    -0.88320
H333        H  0.55512034  0.38473261  0.33447263     0.35770
H334        H  0.53602436  0.41147612  0.33097033     0.40870
H335        H  0.39586282  0.23417787  0.31834414     0.40490
H336        H  0.37749562  0.26155792  0.31748533     0.35370
C337        C  0.48207516  0.12547897  0.30717560    -0.26360
C338        C  0.47461614  0.11930543  0.35051401    -0.14430
C339        C  0.46090932  0.13898686  0.37267851     0.36200
C340        C  0.45361934  0.16373120  0.35048052    -0.25800
C341        C  0.46118279  0.17039381  0.30676354    -0.15040
C342        C  0.47681479  0.15166527  0.28531120     0.37290
N343        N  0.48833113  0.15987581  0.24181826    -0.89290
H344        H  0.49285891  0.11029228  0.29053534     0.18400
H345        H  0.44154292  0.17748079  0.36749543     0.18390
N346        N  0.45398388  0.13335800  0.41749318    -0.88320
H347        H  0.49894907  0.14352493  0.23094178     0.35770
H348        H  0.50982340  0.18718015  0.24059625     0.40870
H349        H  0.43290970  0.10618735  0.42201318     0.40490
H350        H  0.44441011  0.15032961  0.42927796     0.35370
C351        C  0.65252144  0.51949663  0.36882852    -0.26360
C352        C  0.61967756  0.50592073  0.34596661    -0.14430
C353        C  0.61930380  0.49912282  0.30223881     0.36200
C354        C  0.65124146  0.50339983  0.28281901    -0.25800
C355        C  0.68457756  0.51698360  0.30539827    -0.15040
C356        C  0.68516448  0.52631690  0.34874830     0.37290
N357        N  0.71887743  0.54411137  0.37222450    -0.89290
H358        H  0.65316529  0.52624934  0.40215046     0.18400
H359        H  0.64972425  0.49564538  0.24980841     0.18390
N360        N  0.58664541  0.48833945  0.27760053    -0.88320
H361        H  0.71599301  0.52792018  0.39874893     0.35770
H362        H  0.72293694  0.56946752  0.38304227     0.40870
H363        H  0.56628752  0.46261622  0.28834286     0.40490
H364        H  0.59111028  0.48502041  0.24568190     0.35370
C365        C  0.83556300  0.53283597  0.29463178    -0.26360
C366        C  0.79903166  0.50615049  0.30346134    -0.14430
C367        C  0.79200274  0.47769535  0.33253469     0.36200
C368        C  0.82158399  0.47761200  0.35296312    -0.25800
C369        C  0.85836816  0.50432717  0.34414126    -0.15040
C370        C  0.86524980  0.53197022  0.31376123     0.37290
N371        N  0.90212968  0.55918860  0.30220880    -0.89290
H372        H  0.84099420  0.55458021  0.27223327     0.18400
H373        H  0.81548417  0.45572603  0.37538268     0.18390
N374        N  0.75568848  0.44750705  0.34071612    -0.88320
H375        H  0.90213264  0.57867666  0.28154074     0.35770
H376        H  0.91320459  0.54567752  0.28507950     0.40870
H377        H  0.73622457  0.44712708  0.31988386     0.40490
H378        H  0.74844556  0.45067119  0.37149956     0.35370
C379        C  0.65303480  0.52820071  0.02367945    -0.26360
C380        C  0.61816762  0.50102856  0.03726489    -0.14430
C381        C  0.61489881  0.47757869  0.07123138     0.36200
C382        C  0.64686363  0.48168408  0.09030254    -0.25800
C383        C  0.68192845  0.50885649  0.07669829    -0.15040
C384        C  0.68486891  0.53246349  0.04296981     0.37290
N385        N  0.71955417  0.56205893  0.02888867    -0.89290
H386        H  0.65551892  0.54646418  0.49795973     0.18400
H387        H  0.64427759  0.46365029  0.11631046     0.18390
N388        N  0.57992235  0.44976971  0.08751797    -0.88320
H389        H  0.73491976  0.55126521  0.51570345     0.35770
H390        H  0.73368217  0.57849237  0.05499729     0.40870
H391        H  0.55800778  0.44911085  0.07117291     0.40490
H392        H  0.57803824  0.45676886  0.11889477     0.35370
C393        C  0.82080186  0.53572906  0.04349923    -0.26360
C394        C  0.80297802  0.51308018  0.07851213    -0.14430
C395        C  0.81328786  0.48720695  0.09203306     0.36200
C396        C  0.84179898  0.48562227  0.07110839    -0.25800
C397        C  0.85974603  0.50856891  0.03662112    -0.15040
C398        C  0.84905808  0.53358777  0.02225321     0.37290
N399        N  0.86705126  0.55671707  0.48629840    -0.89290
H400        H  0.81280336  0.55531723  0.03297877     0.18400
H401        H  0.84970223  0.46592215  0.08151688     0.18390
N402        N  0.79466761  0.46110750  0.12547342    -0.88320
H403        H  0.85609757  0.57376520  0.47993546     0.35770
H404        H  0.86125412  0.53960454  0.45982473     0.40870
H405        H  0.77063009  0.46048683  0.13499150     0.40490
H406        H  0.81239706  0.46904353  0.15157589     0.35370
C407        C  0.66208012  0.17764724  0.06850453    -0.26360
C408        C  0.69073366  0.17079103  0.07754910    -0.14430
C409        C  0.68741197  0.13680277  0.06635303     0.36200
C410        C  0.65489432  0.10985190  0.04664619    -0.25800
C411        C  0.62587584  0.11651112  0.03776259    -0.15040
C412        C  0.62955143  0.15082427  0.04901343     0.37290
N413        N  0.59995419  0.15799646  0.04169924    -0.89290
H414        H  0.66487432  0.20386803  0.07763330     0.18400
H415        H  0.65231910  0.08367248  0.03782938     0.18390
N416        N  0.71689635  0.12981518  0.07526619    -0.88320
H417        H  0.60725053  0.18461174  0.05161082     0.35770
H418        H  0.57787776  0.13986490  0.06069192     0.40870
H419        H  0.73955141  0.14827692  0.05723723     0.40490
H420        H  0.71002371  0.10335755  0.06518315     0.35370
C421        C  0.82442722  0.34075428  0.02193488    -0.26360
C422        C  0.85981050  0.35996166  0.03993068    -0.14430
C423        C  0.86632090  0.34690898  0.07866480     0.36200
C424        C  0.83839478  0.31486798  0.09694439    -0.25800
C425        C  0.80310932  0.29554588  0.07900464    -0.15040
C426        C  0.79588032  0.30915711  0.04132957     0.37290
N427        N  0.75956858  0.29153370  0.52331730    -0.89290
H428        H  0.81884609  0.35046377  0.49257222     0.18400
H429        H  0.84461037  0.30493518  0.12573025     0.18390
N430        N  0.90051327  0.36578328  0.10118823    -0.88320
H431        H  0.75901620  0.30492381  0.49560164     0.35770
H432        H  0.74230863  0.29423553  0.04506669     0.40870
H433        H  0.90714732  0.39305849  0.10642158     0.40490
H434        H  0.92104560  0.36493307  0.08347158     0.35370
C435        C  0.61700617  0.13990165  0.31900556    -0.26360
C436        C  0.62304936  0.12024237  0.35078481    -0.14430
C437        C  0.65940749  0.12998784  0.36205401     0.36200
C438        C  0.68878358  0.15820437  0.33966516    -0.25800
C439        C  0.68273675  0.17717140  0.30683805    -0.15040
C440        C  0.64633022  0.16824037  0.29700534     0.37290
N441        N  0.63828511  0.18834396  0.26620218    -0.89290
H442        H  0.58917442  0.13303094  0.31109364     0.18400
H443        H  0.71661483  0.16525997  0.34781840     0.18390
N444        N  0.66760568  0.11224299  0.39594813    -0.88320
H445        H  0.64586885  0.18419901  0.23611670     0.35770
H446        H  0.65339372  0.21638238  0.27369851     0.40870
H447        H  0.64384593  0.09200687  0.41073394     0.40490
H448        H  0.68229534  0.13220057  0.41908529     0.35370
C449        C  0.79698906  0.32415855  0.31694509    -0.26360
C450        C  0.80276707  0.29486353  0.30700771    -0.14430
C451        C  0.83634218  0.29712263  0.31760082     0.36200
C452        C  0.86389678  0.32904878  0.33762570    -0.25800
C453        C  0.85834443  0.35860316  0.34763355    -0.15040
C454        C  0.82452026  0.35618981  0.33691460     0.37290
N455        N  0.81854863  0.38649866  0.34538972    -0.89290
H456        H  0.77113098  0.32224499  0.30830061     0.18400
H457        H  0.88967037  0.33066165  0.34599069     0.18390
N458        N  0.84223611  0.26697288  0.30791269    -0.88320
H459        H  0.79223698  0.38019409  0.33569073     0.35770
H460        H  0.83709959  0.40876097  0.32687057     0.40750
H461        H  0.82353802  0.24431477  0.32581634     0.40490
H462        H  0.86848056  0.27303642  0.31758036     0.35370
C463        C  0.30324585  0.50447467  0.33530828    -0.26360
C464        C  0.28230513  0.47469443  0.30829545    -0.14430
C465        C  0.29156392  0.44690085  0.30344792     0.36200
C466        C  0.32243079  0.45013258  0.32469023    -0.25800
C467        C  0.34432613  0.48048169  0.35110319    -0.15040
C468        C  0.33426407  0.50798413  0.35651528     0.37290
N469        N  0.35560870  0.53971616  0.38287408    -0.89290
H470        H  0.29595876  0.52573628  0.33884435     0.18400
H471        H  0.32925437  0.42861153  0.32054922     0.18390
N472        N  0.26937265  0.41534809  0.27713135    -0.88320
H473        H  0.34338926  0.55609881  0.38488135     0.35770
H474        H  0.38084889  0.55576750  0.36790430     0.40870
H475        H  0.24331629  0.40087402  0.29092060     0.40490
H476        H  0.27992670  0.39745922  0.27672677     0.35370
C477        C  0.15284024  0.46144970  0.34727707    -0.26360
C478        C  0.16257970  0.47441132  0.30534599    -0.14430
C479        C  0.14483905  0.49191546  0.28586847     0.36200
C480        C  0.11697852  0.49424826  0.30775274    -0.25800
C481        C  0.10784618  0.48155565  0.34938817    -0.15040
C482        C  0.12618359  0.46552834  0.36971346     0.37290
N483        N  0.11767802  0.45356272  0.41304155    -0.89290
H484        H  0.16582601  0.44783667  0.36266591     0.18400
H485        H  0.10295013  0.50700666  0.29269858     0.18390
N486        N  0.15581202  0.50833241  0.24455070    -0.88320
H487        H  0.13404314  0.44291003  0.42368483     0.35770
H488        H  0.09046874  0.43194523  0.41400749     0.40870
H489        H  0.18287107  0.53010035  0.24695863     0.40490
H490        H  0.13988532  0.51977925  0.23488855     0.35370
C491        C  0.29331051  0.48835593  0.04298639    -0.26360
C492        C  0.27771030  0.46292424  0.07632696    -0.14430
C493        C  0.29329477  0.44101769  0.08720777     0.36200
C494        C  0.32532388  0.44675701  0.06648308    -0.25800
C495        C  0.34160509  0.47294646  0.03381626    -0.15040
C496        C  0.32436922  0.49299261  0.02097683     0.37290
N497        N  0.33802922  0.51771322  0.48544909    -0.89290
H498        H  0.28144286  0.50516414  0.03426759     0.18400
H499        H  0.33757502  0.43050792  0.07608807     0.18390
N500        N  0.27643706  0.41280164  0.11894660    -0.88320
H501        H  0.32267817  0.53080053  0.48086882     0.35770
H502        H  0.33391242  0.50163343  0.45840400     0.40870
H503        H  0.25051334  0.39315813  0.10763793     0.40490
H504        H  0.29134358  0.39921746  0.12324742     0.35370
C505        C  0.12832233  0.45556273  0.09337269    -0.26360
C506        C  0.16436350  0.47383677  0.07769018    -0.14430
C507        C  0.17251031  0.49657249  0.04151230     0.36200
C508        C  0.14425502  0.49973288  0.02151602    -0.25800
C509        C  0.10817347  0.48151347  0.03742427    -0.15040
C510        C  0.10049370  0.45955225  0.07421337     0.37290
N511        N  0.06467451  0.44174037  0.09302453    -0.89290
H512        H  0.12159377  0.43804092  0.12104859     0.18400
H513        H  0.15059474  0.51674529  0.49346300     0.18390
N514        N  0.20947959  0.51702051  0.52571638    -0.88320
H515        H  0.06716763  0.45122007  0.12422598     0.35770
H516        H  0.05502748  0.41342236  0.09399289     0.40870
H517        H  0.22553945  0.53605792  0.04907220     0.40490
H518        H  0.21073378  0.53223767  0.49888063     0.35370
C519        C  0.13768533  0.70026358  0.05590457    -0.26360
C520        C  0.16546018  0.69715871  0.07662451    -0.14430
C521        C  0.16582333  0.66379216  0.07483113     0.36200
C522        C  0.13779608  0.63369779  0.05283542    -0.25800
C523        C  0.10945920  0.63636312  0.03264215    -0.15040
C524        C  0.10974159  0.67036926  0.03362666     0.37290
N525        N  0.08336559  0.67623845  0.01108475    -0.89290
H526        H  0.13792784  0.72622732  0.05674353     0.18400
H527        H  0.13766074  0.60778227  0.05208502     0.18390
N528        N  0.19449868  0.66059872  0.09578681    -0.88320
H529        H  0.06635883  0.67860983  0.03350301     0.35770
H530        H  0.06682591  0.65436422  0.99094339     0.40870
H531        H  0.21927766  0.67859638  0.08077857     0.40490
H532        H  0.19054158  0.63408484  0.09188589     0.35370
C533        C  0.28506416  0.84060614  0.05880736    -0.26360
C534        C  0.28733528  0.81146800  0.07746151    -0.14430
C535        C  0.32028512  0.81024905  0.07400603     0.36200
C536        C  0.35015343  0.83839891  0.05213561    -0.25800
C537        C  0.34815512  0.86797809  0.03424270    -0.15040
C538        C  0.31516961  0.86895052  0.03723147     0.37290
N539        N  0.31225981  0.89844003  0.01791853    -0.89290
H540        H  0.25969828  0.84127821  0.06133977     0.18400
H541        H  0.37540288  0.83747549  0.04973720     0.18390
N542        N  0.32434090  0.78083124  0.09156720    -0.88320
H543        H  0.28621324  0.89510611  0.52315202     0.35770
H544        H  0.31480809  0.89666562  0.48512700     0.40870
H545        H  0.30018473  0.76063392  0.10571097     0.40490
H546        H  0.34423563  0.79207530  0.11548294     0.35370
C547        C  0.14296706  0.63213322  0.33851159    -0.26360
C548        C  0.11026251  0.63225734  0.34769662    -0.14430
C549        C  0.10735294  0.66338879  0.33640766     0.36200
C550        C  0.13698746  0.69328617  0.31606131    -0.25800
C551        C  0.16916856  0.69266500  0.30648584    -0.15040
C552        C  0.17241945  0.66202785  0.31789430     0.37290
N553        N  0.20531190  0.66117860  0.30778014    -0.89290
H554        H  0.14538648  0.60839226  0.34696348     0.18400
H555        H  0.13490805  0.71714503  0.30718426     0.18390
N556        N  0.07494633  0.66516279  0.34661750    -0.88320
H557        H  0.20309145  0.63635928  0.31770869     0.35770
H558        H  0.22685346  0.68208156  0.32520289     0.40870
H559        H  0.05407216  0.64724070  0.32605797     0.40490
H560        H  0.07900435  0.69140379  0.34019271     0.35370
C561        C  0.32015183  0.82983961  0.28740456    -0.26360
C562        C  0.28539347  0.81498099  0.30647846    -0.14430
C563        C  0.28249098  0.82879509  0.34641099     0.36200
C564        C  0.31448758  0.85608377  0.36670019    -0.25800
C565        C  0.34896414  0.87069239  0.34729871    -0.15040
C566        C  0.35173825  0.85781152  0.30683872     0.37290
N567        N  0.38587801  0.87251067  0.28423877    -0.89290
H568        H  0.32299586  0.81947422  0.25697812     0.18400
H569        H  0.31249856  0.86652319  0.39746998     0.18390
N570        N  0.24718510  0.81577409  0.36578403    -0.88320
H571        H  0.39182653  0.85124729  0.28088443     0.35770
H572        H  0.40758531  0.89368702  0.30099619     0.40870
H573        H  0.23206516  0.82339867  0.34613921     0.40490
H574        H  0.24994203  0.82876216  0.39499542     0.35370
C575        C  0.52732738  0.69089350  0.32346051    -0.26360
C576        C  0.49488902  0.68847102  0.30831915    -0.14430
C577        C  0.46108992  0.65586892  0.31389743     0.36200
C578        C  0.46045215  0.62592469  0.33464817    -0.25800
C579        C  0.49298279  0.62799761  0.34942969    -0.15040
C580        C  0.52684574  0.66101751  0.34357481     0.37290
N581        N  0.56106181  0.66534577  0.35822634    -0.89290
H582        H  0.55333404  0.71609600  0.31899733     0.18400
H583        H  0.43461009  0.60062008  0.33851603     0.18390
N584        N  0.42780609  0.65321624  0.29796066    -0.88320
H585        H  0.56656526  0.64706645  0.34167226     0.35770
H586        H  0.55883796  0.65913764  0.39055977     0.40870
H587        H  0.42341571  0.67221674  0.31467534     0.40490
H588        H  0.40531584  0.62717438  0.30431802     0.35370
C589        C  0.48440675  0.82654250  0.29022372    -0.26360
C590        C  0.50525670  0.81242104  0.30864641    -0.14430
C591        C  0.52471985  0.82848945  0.34678498     0.36200
C592        C  0.52137066  0.85669192  0.36625357    -0.25800
C593        C  0.50009289  0.87017818  0.34790707    -0.15040
C594        C  0.48243731  0.85583069  0.30865143     0.37290
N595        N  0.46255834  0.87031702  0.28642691    -0.89290
H596        H  0.46971706  0.81494531  0.26079609     0.18400
H597        H  0.53588309  0.86852186  0.39571780     0.18390
N598        N  0.54964527  0.81847459  0.36525325    -0.88320
H599        H  0.47558378  0.88040763  0.25727523     0.35770
H600        H  0.46384831  0.89276589  0.30228489     0.40870
H601        H  0.56797722  0.81994607  0.34191796     0.40490
H602        H  0.53509245  0.79169587  0.37698135     0.35370
C603        C  0.52006495  0.69580301  0.03967919    -0.26360
C604        C  0.50525196  0.69185915  0.08066362    -0.14430
C605        C  0.48602136  0.65616066  0.09867350     0.36200
C606        C  0.48331264  0.62595104  0.07648843    -0.25800
C607        C  0.49803303  0.63007703  0.03582744    -0.15040
C608        C  0.51616011  0.66531762  0.01674704     0.37290
N609        N  0.53128824  0.67134156  0.47465996    -0.89290
H610        H  0.53492228  0.72279764  0.02521504     0.18400
H611        H  0.46892552  0.59885124  0.09087046     0.18390
N612        N  0.46794366  0.65003890  0.13882638    -0.88320
H613        H  0.51711402  0.68071486  0.45590257     0.35770
H614        H  0.52708161  0.64693644  0.46075073     0.40870
H615        H  0.43998480  0.63131818  0.13437457     0.40490
H616        H  0.47856413  0.63796255  0.15917163     0.35370
C617        C  0.47333789  0.80023622  0.04984963    -0.26360
C618        C  0.50086440  0.80953301  0.08040405    -0.14430
C619        C  0.52701268  0.84709986  0.08719357     0.36200
C620        C  0.52417686  0.87428138  0.06481033    -0.25800
C621        C  0.49615006  0.86532377  0.03475604    -0.15040
C622        C  0.47089979  0.82751260  0.02647430     0.37290
N623        N  0.44298359  0.81665648  0.49440073    -0.89290
H624        H  0.45368982  0.77143132  0.04406757     0.18400
H625        H  0.54440379  0.90280144  0.07114091     0.18390
N626        N  0.55771836  0.85859652  0.11527260    -0.88320
H627        H  0.42586538  0.78803763  0.49389754     0.35770
H628        H  0.45624635  0.82377294  0.46500333     0.40870
H629        H  0.57182760  0.84491438  0.10681968     0.40490
H630        H  0.54834969  0.85175904  0.14638836     0.35370
C631        C  0.50833615  0.72461617  0.60337310     0.03090
C632        C  0.50394542  0.75134359  0.58146675    -0.13060
C633        C  0.50281637  0.77978374  0.60360505     0.00590
C634        C  0.50249699  0.77928727  0.64803238    -0.11580
C635        C  0.50906565  0.75426848  0.67083785     0.03080
C636        C  0.51420910  0.72851572  0.64746586    -0.11000
H637        H  0.50095266  0.74992698  0.54728522     0.08680
H638        H  0.49640628  0.79828579  0.66426379     0.06210
H639        H  0.52195829  0.71061440  0.66331379     0.06050
C640        C  0.49751986  0.72009932  0.78519087     0.03090
C641        C  0.50089045  0.72156430  0.74103261    -0.13060
C642        C  0.50818901  0.75356294  0.71852133     0.00590
C643        C  0.51276940  0.78421750  0.74215481    -0.11580
C644        C  0.50665894  0.78194353  0.78621625     0.03080
C645        C  0.49857977  0.74941432  0.80741833    -0.11000
H646        H  0.49719769  0.69719092  0.72491093     0.08680
H647        H  0.52044803  0.81003776  0.72662585     0.06210
H648        H  0.49228468  0.74624532  0.84091288     0.06050
C649        C  0.25308638  0.78484893  0.78389923     0.03090
C650        C  0.24988779  0.78662153  0.73960980    -0.13060
C651        C  0.22336118  0.75619415  0.71599279     0.00590
C652        C  0.19754243  0.72496060  0.73896409    -0.11580
C653        C  0.19863941  0.72408259  0.78332310     0.03080
C654        C  0.22706024  0.75331800  0.80555377    -0.11000
H655        H  0.26869354  0.81211190  0.72407238     0.08680
H656        H  0.17646922  0.70064573  0.72326667     0.06210
H657        H  0.22896850  0.75107780  0.83956569     0.06050
C658        C  0.25497648  0.78314168  0.60061595     0.03090
C659        C  0.25460739  0.78297075  0.64511569    -0.13060
C660        C  0.22346748  0.75674130  0.66803430     0.00590
C661        C  0.19321915  0.73003066  0.64429829    -0.11580
C662        C  0.19447368  0.72893873  0.59992554     0.03080
C663        C  0.22492338  0.75602808  0.57812877    -0.11000
H664        H  0.27932415  0.80314645  0.66101274     0.08680
H665        H  0.16845268  0.70932284  0.65944558     0.06210
H666        H  0.22578724  0.75524120  0.54378935     0.06050
C667        C  0.19294776  0.46947079  0.60065154     0.03090
C668        C  0.21846944  0.46360057  0.57862339    -0.13060
C669        C  0.24641080  0.46137801  0.60035184     0.00590
C670        C  0.24636565  0.46141264  0.64498129    -0.11580
C671        C  0.22001548  0.46563675  0.66834989     0.03080
C672        C  0.19448245  0.47123191  0.64515902    -0.11000
H673        H  0.21712300  0.46148599  0.54435457     0.08680
H674        H  0.26785345  0.45923912  0.66082006     0.06210
H675        H  0.17605082  0.47813584  0.66116940     0.06050
C676        C  0.19213493  0.47078509  0.78309944     0.03090
C677        C  0.18993399  0.46349149  0.73923767    -0.13060
C678        C  0.22019840  0.46645280  0.71632009     0.00590
C679        C  0.25068468  0.47096918  0.73998867    -0.11580
C680        C  0.25129835  0.47331672  0.78433516     0.03080
C681        C  0.22300707  0.47516758  0.80548954    -0.11000
H682        H  0.16435219  0.45570163  0.72329314     0.08680
H683        H  0.27472161  0.47326471  0.72490248     0.06210
H684        H  0.22521805  0.47992594  0.83940196     0.06050
C685        C  0.77381272  0.26258970  0.78407221     0.03090
C686        C  0.77672599  0.25928134  0.74018376    -0.13060
C687        C  0.74791453  0.23048063  0.71667789     0.00590
C688        C  0.71767052  0.20332181  0.73968014    -0.11580
C689        C  0.71480770  0.20614755  0.78367806     0.03080
C690        C  0.74282626  0.23606898  0.80569370    -0.11000
H691        H  0.80171176  0.27972695  0.72508851     0.08680
H692        H  0.69573365  0.17965963  0.72413978     0.06210
H693        H  0.74057931  0.23866399  0.83962551     0.06050
C694        C  0.77459543  0.26194714  0.60124747     0.03090
C695        C  0.77290194  0.26171825  0.64581682    -0.13060
C696        C  0.74872453  0.22975003  0.66874594     0.00590
C697        C  0.72377965  0.19841464  0.64503122    -0.11580
C698        C  0.72297567  0.19940994  0.60063341     0.03080
C699        C  0.74944725  0.23034015  0.57886626    -0.11000
H700        H  0.79011653  0.28736418  0.66208506     0.08680
H701        H  0.70367961  0.17326315  0.66009227     0.06210
H702        H  0.74965112  0.22976694  0.54454927     0.06050
C703        C  0.71467640  0.51353245  0.59998384     0.03090
C704        C  0.74290683  0.51171041  0.57861217    -0.13060
C705        C  0.77420281  0.51728915  0.60058235     0.00590
C706        C  0.77742359  0.52527836  0.64408195    -0.11580
C707        C  0.74768345  0.52302178  0.66733822     0.03080
C708        C  0.71659272  0.51779444  0.64430856    -0.11000
H709        H  0.74013269  0.50488683  0.54516519     0.08680
H710        H  0.80289177  0.53159298  0.65945001     0.06210
H711        H  0.69305476  0.51595387  0.66032598     0.06050
C712        C  0.71737238  0.51972709  0.78300162     0.03090
C713        C  0.72225305  0.52748915  0.73912920    -0.13060
C714        C  0.74763098  0.52227593  0.71513715     0.00590
C715        C  0.77116701  0.51326536  0.73724225    -0.11580
C716        C  0.76970861  0.50962691  0.78138220     0.03080
C717        C  0.74194358  0.51141406  0.80391278    -0.11000
H718        H  0.70545763  0.53685487  0.72379798     0.08680
H719        H  0.79070233  0.50821110  0.72076268     0.06210
H720        H  0.73937353  0.50549321  0.83746259     0.06050
C721        C  0.45437292  0.19814149  0.78468718     0.03090
C722        C  0.44334804  0.19359575  0.74179781    -0.13060
C723        C  0.44519104  0.22304078  0.71800836     0.00590
C724        C  0.45147708  0.25481382  0.74036131    -0.11580
C725        C  0.45738396  0.25763765  0.78418579     0.03080
C726        C  0.46055510  0.23029555  0.80585278    -0.11000
H727        H  0.43455063  0.16731305  0.72685066     0.08680
H728        H  0.45294471  0.27823702  0.72428857     0.06210
H729        H  0.46851402  0.23471046  0.83895364     0.06050
C730        C  0.45865101  0.20066371  0.60423995     0.03090
C731        C  0.45378043  0.19839781  0.64820437    -0.13060
C732        C  0.44548969  0.22258886  0.67018340     0.00590
C733        C  0.44205020  0.24912691  0.64612046    -0.11580
C734        C  0.45299734  0.25582525  0.60321345     0.03080
C735        C  0.46042844  0.23054951  0.58234654    -0.11000
H736        H  0.45771316  0.17810567  0.66473334     0.08680
H737        H  0.43183816  0.26543487  0.66086393     0.06210
H738        H  0.46800798  0.23400503  0.54918287     0.06050
O739        O  0.51809138  0.58761265  0.52403826    -0.75330
O740        O  0.46721166  0.58002847  0.98876477    -0.54240
C741        C  0.49422906  0.59715459  0.51465669     0.78400
O742        O  0.57573256  0.52406785  0.85664413    -0.59930
O743        O  0.57169150  0.47644302  0.89603884    -0.52960
C744        C  0.58675835  0.50165231  0.86752886     0.70410
O745        O  0.51485968  0.58659702  0.86126653    -0.74490
O746        O  0.46442613  0.57837772  0.89761140    -0.55050
C747        C  0.49071131  0.59565561  0.87094706     0.76420
O748        O  0.57757132  0.52325324  0.52515539    -0.59630
O749        O  0.56915096  0.47233155  0.98884887    -0.52750
C750        C  0.58605286  0.49854771  0.51583074     0.73010
Zr751      Zr  0.53057419  0.53841730  0.00547082     2.54710
O752        O  0.58926287  0.59569836  0.00453655    -0.80200
O753        O  0.52856174  0.53637396  0.58266752    -0.93620
Zr754      Zr  0.52912710  0.53864546  0.87934586     2.64680
O755        O  0.58697785  0.59687455  0.88082870    -0.98570
O756        O  0.52655525  0.53745429  0.80214565    -0.80630
O757        O  0.51281035  0.55693467  0.94304139    -0.83990
O758        O  0.54829760  0.52150762  0.94179484    -2.18700
O759        O  0.45238872  0.39777379  0.52675084    -0.67380
O760        O  0.49883043  0.40172665  0.98540930    -0.51940
C761        C  0.47443997  0.38667027  0.51469429     0.71390
O762        O  0.38651705  0.45861052  0.86189404    -0.60290
O763        O  0.39439900  0.50821492  0.89982994    -0.52260
C764        C  0.37716241  0.48258688  0.87235707     0.73190
O765        O  0.44950193  0.39664914  0.85870105    -0.71680
O766        O  0.50045801  0.40442754  0.89391628    -0.50360
C767        C  0.47406388  0.38773980  0.86716542     0.74580
O768        O  0.38579955  0.45437611  0.52211434    -0.67010
O769        O  0.39438599  0.50643855  0.98950982    -0.54210
C770        C  0.37612157  0.47836088  0.51373164     0.72960
Zr771      Zr  0.43641398  0.44390066  0.00576409     2.77540
O772        O  0.37960834  0.38470438  0.00808950    -0.97760
O773        O  0.43960132  0.44969271  0.58270317    -0.78580
Zr774      Zr  0.43486717  0.44416429  0.87936040     2.70070
O775        O  0.37722962  0.38583179  0.87762392    -0.79830
O776        O  0.43786158  0.44910076  0.80235956    -0.98910
Zr777      Zr  0.44756870  0.52635376  0.94403842     2.21500
Zr778      Zr  0.51801912  0.45591612  0.94129337     2.11130
O779        O  0.45255433  0.42560330  0.94194819    -2.47600
O780        O  0.41732301  0.46095242  0.94325533    -0.79620
O781        O  0.50144216  0.47316329  0.50596409    -0.71820
O782        O  0.46411742  0.50930695  0.87910914    -2.32770
O783        O  0.46548030  0.50908477  0.50775123    -2.28980
O784        O  0.49998637  0.47337910  0.87770938    -0.73580
H785        H  0.57466817  0.53218705  0.94158116     0.78420
H786        H  0.45581142  0.51736940  0.85498224     0.79510
H787        H  0.44189884  0.39915889  0.94176736     0.81730
H788        H  0.45756966  0.51695543  0.53239987     0.79340
H789        H  0.50089550  0.53042077  0.79517366     0.42380
H790        H  0.46217373  0.45228643  0.79499551     0.41350
H791        H  0.36867818  0.38168278  0.90742033     0.41020
H792        H  0.38418475  0.36814546  0.98992121     0.38960
H793        H  0.46527804  0.45685038  0.58979912     0.42090
H794        H  0.50604125  0.53700550  0.59025385     0.36870
H795        H  0.58867848  0.60804450  0.97802988     0.42990
H796        H  0.60389870  0.59186077  0.89763198     0.39410
H797        H  0.37854691  0.37557759  0.53730519     0.44320
H798        H  0.54898327  0.56072056  0.59163997     0.43050
H799        H  0.59636360  0.60019591  0.85142468     0.43180
H800        H  0.41997124  0.42403177  0.79219266     0.43540
O801        O  0.04675384  0.59099049  0.86083330    -0.75330
O802        O  0.08936478  0.58258930  0.89605163    -0.54240
C803        C  0.08014414  0.59996418  0.86970598     0.78400
O804        O  0.92253537  0.52997385  0.52493227    -0.59930
O805        O  0.87965610  0.47913440  0.98885962    -0.52960
C806        C  0.88924029  0.50565717  0.51546803     0.70410
O807        O  0.04639309  0.59373398  0.52195733    -0.74490
O808        O  0.08902566  0.58477916  0.98736924    -0.55050
C809        C  0.07967787  0.60291190  0.51244168     0.76420
O810        O  0.92208552  0.52655695  0.85810107    -0.59630
O811        O  0.87929774  0.47751036  0.89555701    -0.52750
C812        C  0.88856560  0.50271031  0.86728875     0.73010
Zr813      Zr  0.98440230  0.54299101  0.87941696     2.54710
O814        O  0.98326755  0.60045138  0.88107581    -0.80200
O815        O  0.98505302  0.54217469  0.80219717    -0.93620
Zr816      Zr  0.98447416  0.54414132  0.00523560     2.64680
O817        O  0.98468075  0.60233585  0.00515654    -0.98570
O818        O  0.98524808  0.54182200  0.58240890    -0.80630
O819        O  0.02005524  0.56159094  0.94232592    -0.83990
O820        O  0.94881245  0.52643857  0.94222967    -2.18700
O821        O  0.92150232  0.40069343  0.85991356    -0.67380
O822        O  0.87900491  0.40822753  0.89663972    -0.51940
C823        C  0.88815125  0.39142468  0.86934776     0.71390
O824        O  0.04548375  0.46161319  0.52353096    -0.60290
O825        O  0.08898201  0.51261659  0.98937397    -0.52260
C826        C  0.07907982  0.48559936  0.51536573     0.73190
O827        O  0.92258615  0.40281932  0.52646286    -0.71680
O828        O  0.87931034  0.40880034  0.98983827    -0.50360
C829        C  0.88906492  0.39278614  0.51752381     0.74580
O830        O  0.04539204  0.46177018  0.86040815    -0.67010
O831        O  0.08861114  0.51091829  0.89848915    -0.54210
C832        C  0.07875631  0.48497025  0.87097456     0.72960
Zr833      Zr  0.98370201  0.44815406  0.87995229     2.77540
O834        O  0.98377889  0.39011932  0.87943550    -0.97760
O835        O  0.98376299  0.45172242  0.80288129    -0.78580
Zr836      Zr  0.98419800  0.44968332  0.00618529     2.70070
O837        O  0.98210609  0.39074436  0.01089773    -0.79830
O838        O  0.98701033  0.45672362  0.58299097    -0.98910
Zr839      Zr  0.05477471  0.53088382  0.94289890     2.21500
Zr840      Zr  0.91374867  0.46075807  0.94288003     2.11130
O841        O  0.94862997  0.43024698  0.94321181    -2.47600
O842        O  0.01931145  0.46548351  0.94307934    -0.79620
O843        O  0.94825637  0.47775584  0.87877252    -0.71820
O844        O  0.02027397  0.51476175  0.50702263    -2.32770
O845        O  0.01987995  0.51333041  0.87872491    -2.28980
O846        O  0.94840431  0.47889373  0.50698569    -0.73580
H847        H  0.93304030  0.53704137  0.94180267     0.78420
H848        H  0.03632523  0.52288127  0.53146453     0.79510
H849        H  0.93283554  0.40381026  0.94354071     0.81730
H850        H  0.03578262  0.52107395  0.85422988     0.79340
H851        H  0.00843799  0.54234877  0.58956645     0.42380
H852        H  0.96478275  0.45795646  0.59044711     0.41350
H853        H  0.98773751  0.38617244  0.98179031     0.41020
H854        H  0.96321698  0.37362461  0.89823622     0.38960
H855        H  0.96731429  0.46163442  0.79641188     0.42090
H856        H  0.00737276  0.54112560  0.79471256     0.36870
H857        H  0.99823046  0.61371694  0.90621245     0.42990
H858        H  0.96378908  0.59798559  0.98673189     0.39410
H859        H  0.97536186  0.38002184  0.85057596     0.44320
H860        H  0.99077623  0.56725637  0.79385300     0.43050
H861        H  0.97689178  0.60450694  0.53413507     0.43180
H862        H  0.98215136  0.43257572  0.59395209     0.43540
O863        O  0.52159944  0.93285888  0.86115056    -0.75330
O864        O  0.47013790  0.88958631  0.89560497    -0.54240
C865        C  0.49718798  0.89944213  0.86988516     0.78400
O866        O  0.58228787  0.05368494  0.52578999    -0.59930
O867        O  0.57519037  0.09730554  0.99073215    -0.52960
C868        C  0.59216044  0.08734620  0.51685085     0.70410
O869        O  0.51822482  0.92927725  0.52323474    -0.74490
O870        O  0.46781863  0.88753885  0.98659677    -0.55050
C871        C  0.49391124  0.89592128  0.51331692     0.76420
O872        O  0.58231441  0.05700386  0.86201170    -0.59630
O873        O  0.57370296  0.09934568  0.89826617    -0.52750
C874        C  0.59093104  0.09022190  0.87175340     0.73010
Zr875      Zr  0.53430151  0.99450338  0.88009416     2.54710
O876        O  0.59258221  0.99531177  0.87967133    -0.80200
O877        O  0.53145268  0.99512008  0.80295454    -0.93620
Zr878      Zr  0.53312816  0.99221407  0.00617541     2.64680
O879        O  0.58992281  0.99000637  0.00713359    -0.98570
O880        O  0.52992863  0.99214380  0.58330262    -0.80630
O881        O  0.51628855  0.95779959  0.94227677    -0.83990
O882        O  0.55214111  0.02881215  0.94395377    -2.18700
O883        O  0.45616670  0.05693177  0.85926292    -0.67380
O884        O  0.50320374  0.09939348  0.90039729    -0.51940
C885        C  0.47853659  0.09011149  0.87136589     0.71390
O886        O  0.38968180  0.93123828  0.52212095    -0.60290
O887        O  0.39871264  0.88848120  0.98769177    -0.52260
C888        C  0.38090622  0.89782150  0.51318606     0.73190
O889        O  0.45385470  0.05568358  0.52575426    -0.71680
O890        O  0.50473777  0.09875688  0.99122503    -0.50360
C891        C  0.47800013  0.08937640  0.51719248     0.74580
O892        O  0.39120417  0.93326605  0.86000691    -0.67010
O893        O  0.39781013  0.88962006  0.89595874    -0.54210
C894        C  0.38134295  0.89972626  0.86940091     0.72960
Zr895      Zr  0.44024832  0.99469432  0.87964279     2.77540
O896        O  0.38291588  0.99586618  0.87907354    -0.97760
O897        O  0.44329118  0.99380425  0.80257407    -0.78580
Zr898      Zr  0.43940894  0.99338123  0.00605479     2.70070
O899        O  0.38231659  0.99481112  0.00941595    -0.79830
O900        O  0.44312937  0.99129518  0.58297564    -0.98910
Zr901      Zr  0.45095536  0.92322161  0.94157764     2.21500
Zr902      Zr  0.52210798  0.06426872  0.94464009     2.11130
O903        O  0.45673397  0.02931361  0.94347197    -2.47600
O904        O  0.42109609  0.95862682  0.94221821    -0.79620
O905        O  0.50535637  0.03065127  0.87966341    -0.71820
O906        O  0.46806279  0.95699601  0.50648496    -2.32770
O907        O  0.46916202  0.95861973  0.87799631    -2.28980
O908        O  0.50450855  0.02882369  0.50817115    -0.73580
H909        H  0.57852804  0.04443593  0.94413482     0.78420
H910        H  0.45969418  0.94063898  0.53061715     0.79510
H911        H  0.44618582  0.04514839  0.94362620     0.81730
H912        H  0.46122480  0.94285190  0.85328042     0.79340
H913        H  0.50690936  0.96923102  0.59043508     0.42380
H914        H  0.46769695  0.01223496  0.59019563     0.41350
H915        H  0.37125999  0.98663343  0.98090036     0.41020
H916        H  0.38750576  0.01679795  0.89767194     0.38960
H917        H  0.46930918  0.01150539  0.79584269     0.42090
H918        H  0.50884307  0.97193341  0.79531998     0.36870
H919        H  0.59325856  0.98440257  0.90726119     0.42990
H920        H  0.60694453  0.01045037  0.98848183     0.39410
H921        H  0.38130896  0.00409979  0.85012574     0.44320
H922        H  0.55175952  0.99132661  0.79346242     0.43050
H923        H  0.59994266  0.99808653  0.53608147     0.43180
H924        H  0.42569021  0.99885331  0.59345872     0.43540
C925        C  0.47647808  0.35508159  0.57988572    -0.26360
C926        C  0.47063358  0.35376807  0.53612427    -0.14430
C927        C  0.45885657  0.32053620  0.51399886     0.36200
C928        C  0.45201255  0.28875098  0.53657814    -0.25800
C929        C  0.45827618  0.28978762  0.58072973    -0.15040
C930        C  0.47161041  0.32400384  0.60211252     0.37290
N931        N  0.48171983  0.32803984  0.64603066    -0.89290
H932        H  0.48583239  0.38078715  0.59684225     0.18400
H933        H  0.44140798  0.26305250  0.51940555     0.18390
N934        N  0.45348447  0.31912005  0.96881114    -0.88320
H935        H  0.46620312  0.33734280  0.66223493     0.35770
H936        H  0.50942194  0.34825820  0.64866553     0.40870
H937        H  0.43194523  0.32416193  0.96272904     0.40490
H938        H  0.44522161  0.29274493  0.95713899     0.35370
C939        C  0.49561847  0.18299987  0.55846127    -0.26360
C940        C  0.46342930  0.17236643  0.58161667    -0.14430
C941        C  0.43581678  0.13484701  0.58229477     0.36200
C942        C  0.44143467  0.10880771  0.56122686    -0.25800
C943        C  0.47391459  0.11898695  0.53845112    -0.15040
C944        C  0.50108973  0.15693372  0.53638478     0.37290
N945        N  0.53412489  0.16914050  0.01214975    -0.89290
H946        H  0.51655252  0.21187594  0.55751270     0.18400
H947        H  0.41973298  0.08025171  0.56247020     0.18390
N948        N  0.40115025  0.12244825  0.60277074    -0.88320
H949        H  0.55211781  0.19733074  0.01663393     0.35770
H950        H  0.52675118  0.16589725  0.98008180     0.40870
H951        H  0.38936384  0.13738578  0.59072417     0.40490
H952        H  0.40535553  0.12728931  0.63532611     0.35370
C953        C  0.49533865  0.32310483  0.80440697    -0.26360
C954        C  0.46160672  0.29023620  0.80696530    -0.14430
C955        C  0.43205076  0.28962075  0.82909813     0.36200
C956        C  0.43709554  0.32208466  0.84792692    -0.25800
C957        C  0.47085714  0.35507066  0.84548839    -0.15040
C958        C  0.50049993  0.35554384  0.82346491     0.37290
N959        N  0.53555756  0.38838987  0.81807395    -0.89290
H960        H  0.51778769  0.32365365  0.78689524     0.18400
H961        H  0.41444242  0.32143079  0.86509775     0.18390
N962        N  0.39668476  0.25683732  0.83314488    -0.88320
H963        H  0.55512034  0.38473263  0.83447261     0.35770
H964        H  0.53602436  0.41147613  0.83097032     0.40870
H965        H  0.39586283  0.23417787  0.81834417     0.40490
H966        H  0.37749562  0.26155792  0.81748537     0.35370
C967        C  0.48207517  0.12547897  0.80717562    -0.26360
C968        C  0.47461614  0.11930544  0.85051402    -0.14430
C969        C  0.46090932  0.13898686  0.87267852     0.36200
C970        C  0.45361934  0.16373120  0.85048054    -0.25800
C971        C  0.46118279  0.17039381  0.80676355    -0.15040
C972        C  0.47681480  0.15166527  0.78531121     0.37290
N973        N  0.48833115  0.15987582  0.74181828    -0.89290
H974        H  0.49285893  0.11029229  0.79053536     0.18400
H975        H  0.44154292  0.17748079  0.86749544     0.18390
N976        N  0.45398388  0.13335799  0.91749319    -0.88320
H977        H  0.49894909  0.14352494  0.73094180     0.35770
H978        H  0.50982341  0.18718016  0.74059627     0.40870
H979        H  0.43290970  0.10618735  0.92201319     0.40490
H980        H  0.44441010  0.15032960  0.92927797     0.35370
C981        C  0.65252144  0.51949665  0.86882851    -0.26360
C982        C  0.61967756  0.50592075  0.84596661    -0.14430
C983        C  0.61930380  0.49912283  0.80223880     0.36200
C984        C  0.65124146  0.50339984  0.78281900    -0.25800
C985        C  0.68457756  0.51698361  0.80539827    -0.15040
C986        C  0.68516449  0.52631691  0.84874829     0.37290
N987        N  0.71887743  0.54411139  0.87222449    -0.89290
H988        H  0.65316530  0.52624937  0.90215045     0.18400
H989        H  0.64972425  0.49564539  0.74980840     0.18390
N990        N  0.58664541  0.48833946  0.77760053    -0.88320
H991        H  0.71599302  0.52792021  0.89874892     0.35770
H992        H  0.72293695  0.56946754  0.88304225     0.40870
H993        H  0.56628752  0.46261623  0.78834286     0.40490
H994        H  0.59111028  0.48502042  0.74568190     0.35370
C995        C  0.83556300  0.53283596  0.79463177    -0.26360
C996        C  0.79903165  0.50615049  0.80346134    -0.14430
C997        C  0.79200273  0.47769535  0.83253471     0.36200
C998        C  0.82158397  0.47761200  0.85296314    -0.25800
C999        C  0.85836815  0.50432717  0.84414127    -0.15040
C1000       C  0.86524979  0.53197021  0.81376123     0.37290
N1001       N  0.90212967  0.55918859  0.80220880    -0.89290
H1002       H  0.84099419  0.55458019  0.77223326     0.18400
H1003       H  0.81548416  0.45572604  0.87538271     0.18390
N1004       N  0.75568846  0.44750705  0.84071614    -0.88320
H1005       H  0.90213263  0.57867664  0.78154073     0.35770
H1006       H  0.91320458  0.54567749  0.78507950     0.40870
H1007       H  0.73622456  0.44712708  0.81988388     0.40490
H1008       H  0.74844555  0.45067121  0.87149958     0.35370
C1009       C  0.65303480  0.52820071  0.52367944    -0.26360
C1010       C  0.61816762  0.50102856  0.53726489    -0.14430
C1011       C  0.61489881  0.47757868  0.57123137     0.36200
C1012       C  0.64686362  0.48168407  0.59030253    -0.25800
C1013       C  0.68192845  0.50885647  0.57669829    -0.15040
C1014       C  0.68486891  0.53246348  0.54296981     0.37290
N1015       N  0.71955417  0.56205891  0.52888866    -0.89290
H1016       H  0.65551892  0.54646418  0.99795973     0.18400
H1017       H  0.64427758  0.46365028  0.61631046     0.18390
N1018       N  0.57992235  0.44976971  0.58751797    -0.88320
H1019       H  0.73491977  0.55126522  0.01570346     0.35770
H1020       H  0.73368217  0.57849235  0.55499728     0.40870
H1021       H  0.55800778  0.44911085  0.57117291     0.40490
H1022       H  0.57803824  0.45676886  0.61889477     0.35370
C1023       C  0.82080186  0.53572905  0.54349923    -0.26360
C1024       C  0.80297801  0.51308016  0.57851212    -0.14430
C1025       C  0.81328786  0.48720693  0.59203304     0.36200
C1026       C  0.84179898  0.48562226  0.57110837    -0.25800
C1027       C  0.85974603  0.50856890  0.53662111    -0.15040
C1028       C  0.84905808  0.53358777  0.52225321     0.37290
N1029       N  0.86705125  0.55671706  0.98629839    -0.89290
H1030       H  0.81280337  0.55531722  0.53297878     0.18400
H1031       H  0.84970222  0.46592213  0.58151686     0.18390
N1032       N  0.79466760  0.46110747  0.62547340    -0.88320
H1033       H  0.85609756  0.57376519  0.97993545     0.35770
H1034       H  0.86125411  0.53960453  0.95982473     0.40870
H1035       H  0.77063009  0.46048681  0.63499148     0.40490
H1036       H  0.81239705  0.46904349  0.65157587     0.35370
C1037       C  0.66208012  0.17764725  0.56850451    -0.26360
C1038       C  0.69073366  0.17079104  0.57754908    -0.14430
C1039       C  0.68741196  0.13680278  0.56635302     0.36200
C1040       C  0.65489431  0.10985190  0.54664618    -0.25800
C1041       C  0.62587583  0.11651113  0.53776258    -0.15040
C1042       C  0.62955142  0.15082428  0.54901342     0.37290
N1043       N  0.59995419  0.15799646  0.54169923    -0.89290
H1044       H  0.66487432  0.20386804  0.57763327     0.18400
H1045       H  0.65231909  0.08367248  0.53782938     0.18390
N1046       N  0.71689635  0.12981518  0.57526618    -0.88320
H1047       H  0.60725053  0.18461175  0.55161081     0.35770
H1048       H  0.57787776  0.13986491  0.56069192     0.40870
H1049       H  0.73955140  0.14827692  0.55723720     0.40490
H1050       H  0.71002370  0.10335756  0.56518314     0.35370
C1051       C  0.82442723  0.34075428  0.52193485    -0.26360
C1052       C  0.85981051  0.35996166  0.53993066    -0.14430
C1053       C  0.86632091  0.34690898  0.57866478     0.36200
C1054       C  0.83839479  0.31486798  0.59694437    -0.25800
C1055       C  0.80310933  0.29554587  0.57900462    -0.15040
C1056       C  0.79588033  0.30915710  0.54132955     0.37290
N1057       N  0.75956857  0.29153371  0.02331733    -0.89290
H1058       H  0.81884607  0.35046377  0.99257224     0.18400
H1059       H  0.84461038  0.30493517  0.62573023     0.18390
N1060       N  0.90051328  0.36578327  0.60118821    -0.88320
H1061       H  0.75901618  0.30492381  0.99560167     0.35770
H1062       H  0.74230864  0.29423553  0.54506666     0.40870
H1063       H  0.90714733  0.39305848  0.60642156     0.40490
H1064       H  0.92104561  0.36493307  0.58347157     0.35370
C1065       C  0.61700616  0.13990162  0.81900552    -0.26360
C1066       C  0.62304936  0.12024237  0.85078480    -0.14430
C1067       C  0.65940749  0.12998786  0.86205402     0.36200
C1068       C  0.68878358  0.15820439  0.83966516    -0.25800
C1069       C  0.68273674  0.17717139  0.80683802    -0.15040
C1070       C  0.64633021  0.16824034  0.79700529     0.37290
N1071       N  0.63828509  0.18834390  0.76620211    -0.89290
H1072       H  0.58917440  0.13303089  0.81109358     0.18400
H1073       H  0.71661482  0.16526001  0.84781841     0.18390
N1074       N  0.66760568  0.11224304  0.89594816    -0.88320
H1075       H  0.64586884  0.18419894  0.73611664     0.35770
H1076       H  0.65339369  0.21638233  0.77369842     0.40870
H1077       H  0.64384593  0.09200691  0.91073397     0.40490
H1078       H  0.68229532  0.13220063  0.91908531     0.35370
C1079       C  0.79698904  0.32415856  0.81694509    -0.26360
C1080       C  0.80276705  0.29486354  0.80700770    -0.14430
C1081       C  0.83634215  0.29712264  0.81760082     0.36200
C1082       C  0.86389676  0.32904878  0.83762570    -0.25800
C1083       C  0.85834441  0.35860315  0.84763356    -0.15040
C1084       C  0.82452024  0.35618981  0.83691461     0.37290
N1085       N  0.81854861  0.38649866  0.84538973    -0.89290
H1086       H  0.77113096  0.32224500  0.80830061     0.18400
H1087       H  0.88967034  0.33066164  0.84599070     0.18390
N1088       N  0.84223608  0.26697288  0.80791268    -0.88320
H1089       H  0.79223696  0.38019409  0.83569075     0.35770
H1090       H  0.83709957  0.40876097  0.82687059     0.40750
H1091       H  0.82353800  0.24431478  0.82581632     0.40490
H1092       H  0.86848053  0.27303641  0.81758035     0.35370
C1093       C  0.30324585  0.50447467  0.83530829    -0.26360
C1094       C  0.28230512  0.47469443  0.80829547    -0.14430
C1095       C  0.29156392  0.44690085  0.80344794     0.36200
C1096       C  0.32243079  0.45013258  0.82469025    -0.25800
C1097       C  0.34432613  0.48048169  0.85110320    -0.15040
C1098       C  0.33426407  0.50798414  0.85651529     0.37290
N1099       N  0.35560870  0.53971617  0.88287408    -0.89290
H1100       H  0.29595876  0.52573629  0.83884436     0.18400
H1101       H  0.32925436  0.42861153  0.82054924     0.18390
N1102       N  0.26937264  0.41534809  0.77713138    -0.88320
H1103       H  0.34338927  0.55609883  0.88488135     0.35770
H1104       H  0.38084889  0.55576751  0.86790429     0.40870
H1105       H  0.24331628  0.40087402  0.79092064     0.40490
H1106       H  0.27992668  0.39745922  0.77672681     0.35370
C1107       C  0.15284021  0.46144967  0.84727707    -0.26360
C1108       C  0.16257969  0.47441131  0.80534600    -0.14430
C1109       C  0.14483904  0.49191546  0.78586848     0.36200
C1110       C  0.11697851  0.49424825  0.80775275    -0.25800
C1111       C  0.10784616  0.48155563  0.84938818    -0.15040
C1112       C  0.12618356  0.46552831  0.86971346     0.37290
N1113       N  0.11767798  0.45356268  0.91304155    -0.89290
H1114       H  0.16582598  0.44783664  0.86266591     0.18400
H1115       H  0.10295013  0.50700665  0.79269859     0.18390
N1116       N  0.15581202  0.50833242  0.74455072    -0.88320
H1117       H  0.13404309  0.44290998  0.92368483     0.35770
H1118       H  0.09046870  0.43194519  0.91400747     0.40870
H1119       H  0.18287107  0.53010035  0.74695866     0.40490
H1120       H  0.13988533  0.51977925  0.73488858     0.35370
C1121       C  0.29331052  0.48835595  0.54298641    -0.26360
C1122       C  0.27771032  0.46292426  0.57632698    -0.14430
C1123       C  0.29329479  0.44101771  0.58720779     0.36200
C1124       C  0.32532389  0.44675703  0.56648310    -0.25800
C1125       C  0.34160509  0.47294647  0.53381627    -0.15040
C1126       C  0.32436923  0.49299262  0.52097684     0.37290
N1127       N  0.33802921  0.51771321  0.98544908    -0.89290
H1128       H  0.28144287  0.50516416  0.53426761     0.18400
H1129       H  0.33757503  0.43050794  0.57608808     0.18390
N1130       N  0.27643707  0.41280166  0.61894662    -0.88320
H1131       H  0.32267816  0.53080051  0.98086880     0.35770
H1132       H  0.33391242  0.50163342  0.95840399     0.40870
H1133       H  0.25051335  0.39315815  0.60763795     0.40490
H1134       H  0.29134360  0.39921748  0.62324744     0.35370
C1135       C  0.12832234  0.45556274  0.59337270    -0.26360
C1136       C  0.16436351  0.47383678  0.57769019    -0.14430
C1137       C  0.17251032  0.49657251  0.54151231     0.36200
C1138       C  0.14425504  0.49973289  0.52151603    -0.25800
C1139       C  0.10817348  0.48151349  0.53742428    -0.15040
C1140       C  0.10049371  0.45955226  0.57421338     0.37290
N1141       N  0.06467452  0.44174038  0.59302453    -0.89290
H1142       H  0.12159377  0.43804093  0.62104860     0.18400
H1143       H  0.15059472  0.51674527  0.99346299     0.18390
N1144       N  0.20947958  0.51702049  0.02571637    -0.88320
H1145       H  0.06716764  0.45122008  0.62422598     0.35770
H1146       H  0.05502749  0.41342237  0.59399288     0.40870
H1147       H  0.22553946  0.53605794  0.54907222     0.40490
H1148       H  0.21073376  0.53223765  0.99888062     0.35370
C1149       C  0.13768534  0.70026359  0.55590457    -0.26360
C1150       C  0.16546018  0.69715872  0.57662452    -0.14430
C1151       C  0.16582333  0.66379216  0.57483115     0.36200
C1152       C  0.13779608  0.63369780  0.55283543    -0.25800
C1153       C  0.10945920  0.63636313  0.53264215    -0.15040
C1154       C  0.10974159  0.67036927  0.53362667     0.37290
N1155       N  0.08336559  0.67623846  0.51108475    -0.89290
H1156       H  0.13792784  0.72622733  0.55674353     0.18400
H1157       H  0.13766074  0.60778227  0.55208504     0.18390
N1158       N  0.19449867  0.66059872  0.59578684    -0.88320
H1159       H  0.06635884  0.67860985  0.53350300     0.35770
H1160       H  0.06682591  0.65436423  0.49094339     0.40870
H1161       H  0.21927766  0.67859638  0.58077860     0.40490
H1162       H  0.19054157  0.63408484  0.59188591     0.35370
C1163       C  0.28506416  0.84060615  0.55880737    -0.26360
C1164       C  0.28733528  0.81146800  0.57746152    -0.14430
C1165       C  0.32028512  0.81024905  0.57400604     0.36200
C1166       C  0.35015343  0.83839891  0.55213561    -0.25800
C1167       C  0.34815511  0.86797809  0.53424270    -0.15040
C1168       C  0.31516960  0.86895052  0.53723147     0.37290
N1169       N  0.31225980  0.89844003  0.51791854    -0.89290
H1170       H  0.25969827  0.84127821  0.56133978     0.18400
H1171       H  0.37540288  0.83747549  0.54973720     0.18390
N1172       N  0.32434090  0.78083125  0.59156721    -0.88320
H1173       H  0.28621324  0.89510611  0.02315201     0.35770
H1174       H  0.31480811  0.89666562  0.98512699     0.40870
H1175       H  0.30018473  0.76063392  0.60571098     0.40490
H1176       H  0.34423563  0.79207531  0.61548295     0.35370
C1177       C  0.14296706  0.63213322  0.83851161    -0.26360
C1178       C  0.11026250  0.63225732  0.84769662    -0.14430
C1179       C  0.10735293  0.66338877  0.83640764     0.36200
C1180       C  0.13698745  0.69328615  0.81606129    -0.25800
C1181       C  0.16916856  0.69266499  0.80648585    -0.15040
C1182       C  0.17241946  0.66202784  0.81789433     0.37290
N1183       N  0.20531191  0.66117860  0.80778019    -0.89290
H1184       H  0.14538648  0.60839226  0.84696352     0.18400
H1185       H  0.13490804  0.71714500  0.80718422     0.18390
N1186       N  0.07494631  0.66516276  0.84661745    -0.88320
H1187       H  0.20309147  0.63635929  0.81770875     0.35770
H1188       H  0.22685346  0.68208157  0.82520294     0.40870
H1189       H  0.05407215  0.64724067  0.82605791     0.40490
H1190       H  0.07900433  0.69140375  0.84019265     0.35370
C1191       C  0.32015183  0.82983960  0.78740458    -0.26360
C1192       C  0.28539347  0.81498097  0.80647848    -0.14430
C1193       C  0.28249098  0.82879508  0.84641100     0.36200
C1194       C  0.31448758  0.85608376  0.86670020    -0.25800
C1195       C  0.34896414  0.87069238  0.84729873    -0.15040
C1196       C  0.35173825  0.85781151  0.80683873     0.37290
N1197       N  0.38587801  0.87251066  0.78423880    -0.89290
H1198       H  0.32299587  0.81947420  0.75697814     0.18400
H1199       H  0.31249856  0.86652319  0.89746999     0.18390
N1200       N  0.24718510  0.81577408  0.86578404    -0.88320
H1201       H  0.39182653  0.85124728  0.78088446     0.35770
H1202       H  0.40758531  0.89368701  0.80099621     0.40870
H1203       H  0.23206515  0.82339866  0.84613922     0.40490
H1204       H  0.24994203  0.82876215  0.89499544     0.35370
C1205       C  0.52732737  0.69089351  0.82346054    -0.26360
C1206       C  0.49488901  0.68847102  0.80831915    -0.14430
C1207       C  0.46108992  0.65586890  0.81389738     0.36200
C1208       C  0.46045215  0.62592468  0.83464813    -0.25800
C1209       C  0.49298279  0.62799762  0.84942969    -0.15040
C1210       C  0.52684573  0.66101753  0.84357484     0.37290
N1211       N  0.56106180  0.66534580  0.85822640    -0.89290
H1212       H  0.55333402  0.71609603  0.81899739     0.18400
H1213       H  0.43461010  0.60062006  0.83851596     0.18390
N1214       N  0.42780609  0.65321621  0.79796057    -0.88320
H1215       H  0.56656527  0.64706649  0.84167234     0.35770
H1216       H  0.55883793  0.65913766  0.89055983     0.40870
H1217       H  0.42341569  0.67221669  0.81467524     0.40490
H1218       H  0.40531585  0.62717433  0.80431791     0.35370
C1219       C  0.48440675  0.82654250  0.79022370    -0.26360
C1220       C  0.50525670  0.81242104  0.80864639    -0.14430
C1221       C  0.52471985  0.82848945  0.84678496     0.36200
C1222       C  0.52137066  0.85669192  0.86625356    -0.25800
C1223       C  0.50009289  0.87017818  0.84790705    -0.15040
C1224       C  0.48243731  0.85583069  0.80865142     0.37290
N1225       N  0.46255835  0.87031703  0.78642690    -0.89290
H1226       H  0.46971707  0.81494531  0.76079607     0.18400
H1227       H  0.53588309  0.86852186  0.89571779     0.18390
N1228       N  0.54964527  0.81847459  0.86525323    -0.88320
H1229       H  0.47558379  0.88040765  0.75727521     0.35770
H1230       H  0.46384832  0.89276590  0.80228487     0.40870
H1231       H  0.56797722  0.81994607  0.84191795     0.40490
H1232       H  0.53509245  0.79169587  0.87698134     0.35370
C1233       C  0.52006495  0.69580301  0.53967918    -0.26360
C1234       C  0.50525195  0.69185915  0.58066360    -0.14430
C1235       C  0.48602134  0.65616065  0.59867348     0.36200
C1236       C  0.48331262  0.62595103  0.57648841    -0.25800
C1237       C  0.49803303  0.63007703  0.53582742    -0.15040
C1238       C  0.51616012  0.66531762  0.51674704     0.37290
N1239       N  0.53128822  0.67134155  0.97465996    -0.89290
H1240       H  0.53492228  0.72279764  0.52521503     0.18400
H1241       H  0.46892549  0.59885123  0.59087043     0.18390
N1242       N  0.46794362  0.65003889  0.63882635    -0.88320
H1243       H  0.51711400  0.68071486  0.95590257     0.35770
H1244       H  0.52708158  0.64693643  0.96075073     0.40870
H1245       H  0.43998476  0.63131817  0.63437452     0.40490
H1246       H  0.47856408  0.63796253  0.65917160     0.35370
C1247       C  0.47333788  0.80023622  0.54984963    -0.26360
C1248       C  0.50086439  0.80953301  0.58040404    -0.14430
C1249       C  0.52701268  0.84709986  0.58719356     0.36200
C1250       C  0.52417686  0.87428138  0.56481032    -0.25800
C1251       C  0.49615005  0.86532377  0.53475604    -0.15040
C1252       C  0.47089977  0.82751260  0.52647431     0.37290
N1253       N  0.44298361  0.81665647  0.99440072    -0.89290
H1254       H  0.45368981  0.77143132  0.54406757     0.18400
H1255       H  0.54440379  0.90280143  0.57114089     0.18390
N1256       N  0.55771836  0.85859652  0.61527258    -0.88320
H1257       H  0.42586541  0.78803763  0.99389753     0.35770
H1258       H  0.45624638  0.82377294  0.96500332     0.40870
H1259       H  0.57182760  0.84491437  0.60681965     0.40490
H1260       H  0.54834970  0.85175903  0.64638833     0.35370
loop_ 
_geom_bond_atom_site_label_1 
_geom_bond_atom_site_label_2 
_geom_bond_distance 
_geom_bond_site_symmetry_2 
_ccdc_geom_bond_type 
C1            C2   1.406       .  A
C1            C6   1.406       .  A
C1          C604   1.495       .  S
C2            C3   1.402       .  A
C2            H7   1.083       .  S
C3            C4   1.401       .  A
C3          C618   1.484       .  S
C4            C5   1.409       .  A
C4            H8   1.080       .  S
C5            C6   1.410       .  A
C5           C12   1.504       .  S
C6            H9   1.079       .  S
C10          C11   1.398       .  A
C10          C15   1.395       .  A
C10         C576   1.469       .  S
C11          C12   1.410       .  A
C11          H16   1.080       .  S
C12          C13   1.412       .  A
C13          C14   1.407       .  A
C13          H17   1.081       .  S
C14          C15   1.400       .  A
C14         C590   1.487       .  S
C15          H18   1.081       .  S
C19          C20   1.408       .  A
C19          C24   1.402       .  A
C19         C562   1.492       .  S
C20          C21   1.413       .  A
C20          H25   1.079       .  S
C21          C22   1.414       .  A
C21          C30   1.512       .  S
C22          C23   1.400       .  A
C22          H26   1.078       .  S
C23          C24   1.397       .  A
C23         C551   1.474       .  S
C24          H27   1.083       .  S
C28          C29   1.403       .  A
C28          C33   1.396       .  A
C28         C534   1.477       .  S
C29          C30   1.417       .  A
C29          H34   1.079       .  S
C30          C31   1.415       .  A
C31          C32   1.401       .  A
C31          H35   1.078       .  S
C32          C33   1.396       .  A
C32         C520   1.474       .  S
C33          H36   1.084       .  S
C37          C38   1.400       .  A
C37          C42   1.405       .  A
C37         C506   1.490       .  S
C38          C39   1.402       .  A
C38          H43   1.083       .  S
C39          C40   1.407       .  A
C39         C492   1.492       .  S
C40          C41   1.414       .  A
C40          H44   1.075       .  S
C41          C42   1.412       .  A
C41          C48   1.513       .  S
C42          H45   1.079       .  S
C46          C47   1.409       .  A
C46          C51   1.406       .  A
C46         C478   1.500       .  S
C47          C48   1.414       .  A
C47          H52   1.078       .  S
C48          C49   1.411       .  A
C49          C50   1.401       .  A
C49          H53   1.077       .  S
C50          C51   1.400       .  A
C50         C464   1.482       .  S
C51          H54   1.083       .  S
C55          C56   1.402       .  A
C55          C60   1.397       .  A
C55         C450   1.477       .  S
C56          C57   1.416       .  A
C56          H61   1.079       .  S
C57          C58   1.412       .  A
C57          C66   1.512       .  S
C58          C59   1.402       .  A
C58          H62   1.075       .  S
C59          C60   1.400       .  A
C59         C439   1.480       .  S
C60          H63   1.084       .  S
C64          C65   1.407       .  A
C64          C69   1.402       .  A
C64         C425   1.492       .  S
C65          C66   1.411       .  A
C65          H70   1.078       .  S
C66          C67   1.415       .  A
C67          C68   1.401       .  A
C67          H71   1.078       .  S
C68          C69   1.396       .  A
C68         C408   1.474       .  S
C69          H72   1.082       .  S
C73          C74   1.400       .  A
C73          C78   1.406       .  A
C73         C383   1.483       .  S
C74          C75   1.398       .  A
C74          H79   1.083       .  S
C75          C76   1.401       .  A
C75         C394   1.481       .  S
C76          C77   1.412       .  A
C76          H80   1.080       .  S
C77          C78   1.412       .  A
C77          C84   1.507       .  S
C78          H81   1.079       .  S
C82          C83   1.413       .  A
C82          C87   1.408       .  A
C82         C355   1.502       .  S
C83          C84   1.412       .  A
C83          H88   1.079       .  S
C84          C85   1.408       .  A
C85          C86   1.398       .  A
C85          H89   1.079       .  S
C86          C87   1.401       .  A
C86         C366   1.485       .  S
C87          H90   1.080       .  S
C91          C92   1.410       .  A
C91          C96   1.406       .  A
C91         C341   1.502       .  S
C92          C93   1.414       .  A
C92          H97   1.079       .  S
C93          C94   1.409       .  A
C93         C102   1.508       .  S
C94          C95   1.398       .  A
C94          H98   1.080       .  S
C95          C96   1.398       .  A
C95         C324   1.473       .  S
C96          H99   1.083       .  S
C100        C101   1.398       .  A
C100        C105   1.400       .  A
C100        C310   1.481       .  S
C101        C102   1.408       .  A
C101        H106   1.079       .  S
C102        C103   1.413       .  A
C103        C104   1.412       .  A
C103        H107   1.078       .  S
C104        C105   1.409       .  A
C104        C299   1.505       .  S
C105        H108   1.082       .  S
O109        C111   1.287       .  A
O109       Zr751   2.441       .  S
O110        C741   1.285       .  A
O110       Zr147   2.422       .  S
C111        C607   1.467       .  S
C111        O740   1.285   1_554  A
O112        C114   1.286       .  A
O112       Zr124   2.435       .  S
O113        C114   1.288       .  A
O113       Zr148   2.436       .  S
C114        C352   1.471       .  S
O115        C117   1.287       .  A
O115       Zr124   2.437       .  S
O116        C117   1.286       .  A
O116       Zr147   2.422       .  S
C117        C579   1.477       .  S
O118        C120   1.287       .  A
O118       Zr751   2.439       .  S
O119        C750   1.285       .  A
O119       Zr148   2.419       .  S
C120        C380   1.466       .  S
C120        O749   1.285   1_554  A
Zr121       O739   2.441       .  S
Zr121       O748   2.439       .  S
Zr121       O122   2.434       .  S
Zr121       O753   2.435       .  S
Zr121       O127   2.370       .  S
Zr121       O128   2.370       .  S
Zr121       O781   2.373       .  S
Zr121       O783   2.374       .  S
O122        H165   0.990       .  S
O123       Zr751   2.435       .  S
O123        H164   0.990       .  S
O123        H168   0.990       .  S
Zr124       O125   2.436       .  S
Zr124       O126   2.435       .  S
Zr124       O128   2.371       .  S
Zr124       O127   2.370       .  S
Zr124       O152   2.370       .  S
Zr124       O154   2.374       .  S
O125        H166   0.990       .  S
O125        H169   0.990       .  S
O126        H159   0.990       .  S
O127       Zr147   2.376       .  S
O128       Zr148   2.383       .  S
O128        H155   0.966       .  S
O129        C131   1.286       .  A
O129       Zr771   2.436       .  S
O130        C761   1.287       .  A
O130       Zr148   2.434       .  S
C131        C296   1.472       .  S
C131        O760   1.287   1_554  A
O132        C134   1.292       .  A
O132       Zr144   2.457       .  S
O133        C134   1.283       .  A
O133       Zr147   2.410       .  S
C134        C467   1.496       .  S
O135        C137   1.290       .  A
O135       Zr144   2.449       .  S
O136        C137   1.285       .  A
O136       Zr148   2.415       .  S
C137        C327   1.475       .  S
O138        C140   1.287       .  A
O138       Zr771   2.434       .  S
O139        C770   1.287       .  A
O139       Zr147   2.427       .  S
C140        C495   1.494       .  S
C140        O769   1.287   1_554  A
Zr141       O759   2.436       .  S
Zr141       O768   2.434       .  S
Zr141       O142   2.436       .  S
Zr141       O773   2.434       .  S
Zr141       O149   2.370       .  S
Zr141       O150   2.369       .  S
Zr141       O783   2.371       .  S
Zr141       O781   2.371       .  S
O142        H162   0.990       .  S
O142        H797   0.990       .  S
O143       Zr771   2.434       .  S
O143        H163   0.990       .  S
Zr144       O145   2.433       .  S
Zr144       O146   2.434       .  S
Zr144       O150   2.370       .  S
Zr144       O149   2.373       .  S
Zr144       O154   2.375       .  S
Zr144       O152   2.369       .  S
O145        H161   0.990       .  S
O146        H160   0.990       .  S
O146        H170   0.990       .  S
Zr147       O150   2.376       .  S
Zr147       O152   2.384       .  S
Zr147       O783   2.382       .  S
Zr148       O149   2.385       .  S
Zr148       O154   2.384       .  S
Zr148       O781   2.381       .  S
O149        H157   0.966       .  S
O151       Zr751   2.373       .  S
O151       Zr771   2.371       .  S
O151       Zr778   2.381   1_554  S
O152        H156   0.966       .  S
O153       Zr751   2.374       .  S
O153       Zr771   2.371       .  S
O153       Zr777   2.382   1_554  S
O153        H158   0.966       .  S
H167        O772   0.990       .  S
O171        C173   1.289       .  A
O171       Zr183   2.447   1_455  S
O172        C173   1.286       .  A
O172       Zr209   2.419       .  S
C173        C548   1.485       .  S
O174        C176   1.287       .  A
O174       Zr816   2.445       .  S
O175        C806   1.285       .  A
O175       Zr210   2.420       .  S
C176        C397   1.467       .  S
C176        O805   1.285   1_554  A
O177        C179   1.288       .  A
O177       Zr816   2.440   1_455  S
O178        C809   1.287       .  A
O178       Zr209   2.424       .  S
C179        C523   1.476       .  S
C179        O808   1.287   1_554  A
O180        C182   1.289       .  A
O180       Zr183   2.445       .  S
O181        C182   1.286       .  A
O181       Zr210   2.415       .  S
C182        C369   1.494       .  S
Zr183       O184   2.434       .  S
Zr183       O185   2.435       .  S
Zr183       O189   2.368   1_655  S
Zr183       O190   2.369       .  S
Zr183       O213   2.373       .  S
Zr183       O215   2.373   1_655  S
O184        H227   0.990       .  S
O185        H226   0.990   1_655  S
O185        H230   0.990       .  S
Zr186       O804   2.445       .  S
Zr186       O807   2.440   1_655  S
Zr186       O187   2.436       .  S
Zr186       O818   2.436       .  S
Zr186       O190   2.371       .  S
Zr186       O189   2.371   1_655  S
Zr186       O844   2.376   1_655  S
Zr186       O846   2.374       .  S
O187        H228   0.990       .  S
O187        H861   0.990       .  S
O188       Zr816   2.436       .  S
O188        H221   0.990   1_655  S
O189       Zr209   2.382       .  S
O190       Zr210   2.386       .  S
O190        H217   0.966       .  S
O191        C193   1.289       .  A
O191       Zr203   2.445       .  S
O192        C193   1.287       .  A
O192       Zr210   2.424       .  S
C193        C453   1.484       .  S
O194        C196   1.285       .  A
O194       Zr836   2.428   1_455  S
O195        C826   1.288       .  A
O195       Zr209   2.430       .  S
C196        C509   1.489       .  S
C196        O825   1.288   1_554  A
O197        C199   1.284       .  A
O197       Zr836   2.427       .  S
O198        C829   1.287       .  A
O198       Zr210   2.426       .  S
C199        C422   1.488       .  S
C199        O828   1.287   1_554  A
O200        C202   1.287       .  A
O200       Zr203   2.440   1_455  S
O201        C202   1.286       .  A
O201       Zr209   2.425       .  S
C202        C481   1.469       .  S
Zr203       O204   2.435       .  S
Zr203       O205   2.434       .  S
Zr203       O211   2.370       .  S
Zr203       O212   2.373   1_655  S
Zr203       O215   2.371   1_655  S
Zr203       O213   2.370       .  S
O204        H224   0.990       .  S
O204        H229   0.990       .  S
O205        H225   0.990       .  S
Zr206       O824   2.428   1_655  S
Zr206       O827   2.427       .  S
Zr206       O207   2.433       .  S
Zr206       O838   2.434       .  S
Zr206       O212   2.368   1_655  S
Zr206       O211   2.369       .  S
Zr206       O846   2.369       .  S
Zr206       O844   2.367   1_655  S
O207        H223   0.990       .  S
O208       Zr836   2.434       .  S
O208        H222   0.990       .  S
O208        H232   0.990       .  S
Zr209       O212   2.377       .  S
Zr209       O215   2.387       .  S
Zr209       O844   2.382       .  S
Zr210       O211   2.381       .  S
Zr210       O213   2.382       .  S
Zr210       O846   2.380       .  S
O211        H219   0.966       .  S
O214       Zr816   2.376   1_455  S
O214       Zr836   2.367   1_455  S
O214       Zr839   2.382   1_554  S
O214        H218   0.966       .  S
O215        H220   0.966       .  S
O216       Zr816   2.374       .  S
O216       Zr836   2.369       .  S
O216       Zr840   2.380   1_554  S
H231        O817   0.990       .  S
O233        C235   1.286       .  A
O233       Zr245   2.437       .  S
O234        C235   1.286       .  A
O234       Zr271   2.424       .  S
C235        C593   1.466       .  S
O236        C238   1.288       .  A
O236       Zr878   2.441   1_545  S
O237        C868   1.288       .  A
O237       Zr272   2.430       .  S
C238        C411   1.483       .  S
C238        O867   1.288   1_554  A
O239        C241   1.291       .  A
O239       Zr878   2.448       .  S
O240        C871   1.284       .  A
O240       Zr271   2.413       .  S
C241        C621   1.495       .  S
C241        O870   1.284   1_554  A
O242        C244   1.288       .  A
O242       Zr245   2.445   1_545  S
O243        C244   1.284       .  A
O243       Zr272   2.413       .  S
C244        C436   1.465       .  S
Zr245       O246   2.434       .  S
Zr245       O247   2.435       .  S
Zr245       O251   2.372       .  S
Zr245       O252   2.365   1_565  S
Zr245       O275   2.372   1_565  S
Zr245       O277   2.375       .  S
O246        H289   0.990       .  S
O247        H288   0.990       .  S
O247        H292   0.990       .  S
Zr248       O866   2.441   1_565  S
Zr248       O869   2.448       .  S
Zr248       O249   2.436       .  S
Zr248       O880   2.435       .  S
Zr248       O252   2.371   1_565  S
Zr248       O251   2.368       .  S
Zr248       O906   2.370       .  S
Zr248       O908   2.379   1_565  S
O249        H290   0.990   1_565  S
O249        H923   0.990       .  S
O250       Zr878   2.435       .  S
O250        H283   0.990       .  S
O251       Zr271   2.379       .  S
O252       Zr272   2.385       .  S
O252        H279   0.965       .  S
O253        C255   1.286       .  A
O253       Zr265   2.435   1_545  S
O254        C255   1.287       .  A
O254       Zr272   2.433       .  S
C255        C338   1.470       .  S
O256        C258   1.288       .  A
O256       Zr898   2.443       .  S
O257        C888   1.286       .  A
O257       Zr271   2.422       .  S
C258        C537   1.477       .  S
C258        O887   1.286   1_554  A
O259        C261   1.290       .  A
O259       Zr898   2.447   1_545  S
O260        C891   1.284       .  A
O260       Zr272   2.416       .  S
C261        C313   1.494       .  S
C261        O890   1.284   1_554  A
O262        C264   1.286       .  A
O262       Zr265   2.438       .  S
O263        C264   1.286       .  A
O263       Zr271   2.425       .  S
C264        C565   1.469       .  S
Zr265       O266   2.436       .  S
Zr265       O267   2.434       .  S
Zr265       O273   2.370   1_565  S
Zr265       O274   2.370       .  S
Zr265       O277   2.369       .  S
Zr265       O275   2.374   1_565  S
O266        H286   0.990   1_565  S
O266        H291   0.990   1_565  S
O267        H287   0.990   1_565  S
Zr268       O886   2.443       .  S
Zr268       O889   2.447   1_565  S
Zr268       O269   2.434       .  S
Zr268       O900   2.434       .  S
Zr268       O274   2.373       .  S
Zr268       O273   2.367   1_565  S
Zr268       O908   2.373   1_565  S
Zr268       O906   2.371       .  S
O269        H285   0.990       .  S
O270       Zr898   2.434       .  S
O270        H284   0.990   1_565  S
O270        H294   0.990       .  S
Zr271       O274   2.376       .  S
Zr271       O277   2.383       .  S
Zr271       O906   2.383       .  S
Zr272       O273   2.381       .  S
Zr272       O275   2.382       .  S
Zr272       O908   2.382       .  S
O273        H281   0.966       .  S
O276       Zr878   2.370       .  S
O276       Zr898   2.371       .  S
O276       Zr901   2.383   1_554  S
O276        H280   0.966       .  S
O277        H282   0.966       .  S
O278       Zr878   2.379   1_545  S
O278       Zr898   2.373   1_545  S
O278       Zr902   2.382   1_554  S
H293        O879   0.990       .  S
C295        C296   1.397       .  A
C295        C300   1.402       .  A
C295        H302   1.084       .  S
C296        C297   1.407       .  A
C297        C298   1.409       .  A
C297        N934   1.439   1_554  S
C298        C299   1.413       .  A
C298        H303   1.082       .  S
C299        C300   1.421       .  A
C300        N301   1.433       .  S
N301        H305   1.046       .  S
N301        H306   1.045       .  S
N304        C927   1.439       .  S
N304        H307   1.046       .  S
N304        H308   1.046       .  S
C309        C310   1.401       .  A
C309        C314   1.408       .  A
C309        H316   1.084       .  S
C310        C311   1.412       .  A
C311        C312   1.395       .  A
C311        N318   1.434       .  S
C312        C313   1.408       .  A
C312        H317   1.083       .  S
C313        C314   1.422       .  A
C314        N945   1.437       .  S
N315        C944   1.437       .  S
N315        H319   1.046       .  S
N315        H320   1.046       .  S
N318        H321   1.046       .  S
N318        H322   1.044       .  S
C323        C324   1.400       .  A
C323        C328   1.400       .  A
C323        H330   1.084       .  S
C324        C325   1.415       .  A
C325        C326   1.400       .  A
C325        N332   1.439       .  S
C326        C327   1.403       .  A
C326        H331   1.084       .  S
C327        C328   1.419       .  A
C328        N329   1.438       .  S
N329        H333   1.045       .  S
N329        H334   1.041       .  S
N332        H335   1.043       .  S
N332        H336   1.046       .  S
C337        C338   1.397       .  A
C337        C342   1.405       .  A
C337        H344   1.084       .  S
C338        C339   1.406       .  A
C339        C340   1.407       .  A
C339        N346   1.438       .  S
C340        C341   1.411       .  A
C340        H345   1.082       .  S
C341        C342   1.422       .  A
C342        N343   1.438       .  S
N343        H347   1.046       .  S
N343        H348   1.045       .  S
N346        H349   1.046       .  S
N346        H350   1.046       .  S
C351        C352   1.400       .  A
C351        C356   1.406       .  A
C351        H358   1.084       .  S
C352        C353   1.406       .  A
C353        C354   1.404       .  A
C353        N360   1.438       .  S
C354        C355   1.412       .  A
C354        H359   1.082       .  S
C355        C356   1.418       .  A
C356        N357   1.432       .  S
N357        H361   1.046       .  S
N357        H362   1.046       .  S
N360        H363   1.043       .  S
N360        H364   1.046       .  S
C365        C366   1.403       .  A
C365        C370   1.402       .  A
C365        H372   1.084       .  S
C366        C367   1.415       .  A
C367        C368   1.402       .  A
C367        N374   1.437       .  S
C368        C369   1.411       .  A
C368        H373   1.083       .  S
C369        C370   1.418       .  A
C370        N371   1.439       .  S
N371        H375   1.046       .  S
N371        H376   1.046       .  S
N374        H377   1.043       .  S
N374        H378   1.045       .  S
C379        C380   1.400       .  A
C379        C384   1.397       .  A
C379       H1016   1.085   1_554  S
C380        C381   1.414       .  A
C381        C382   1.401       .  A
C381        N388   1.439       .  S
C382        C383   1.406       .  A
C382        H387   1.084       .  S
C383        C384   1.416       .  A
C384        N385   1.433       .  S
N385        H390   1.045       .  S
N385       H1019   1.043       .  S
H386       C1009   1.085       .  S
N388        H391   1.043       .  S
N388        H392   1.046       .  S
H389       N1015   1.043       .  S
C393        C394   1.405       .  A
C393        C398   1.406       .  A
C393        H400   1.084       .  S
C394        C395   1.421       .  A
C395        C396   1.399       .  A
C395        N402   1.438       .  S
C396        C397   1.398       .  A
C396        H401   1.084       .  S
C397        C398   1.407       .  A
C398       N1029   1.438   1_554  S
N399       C1028   1.438       .  S
N399        H403   1.046       .  S
N399        H404   1.046       .  S
N402        H405   1.042       .  S
N402        H406   1.046       .  S
C407        C408   1.401       .  A
C407        C412   1.403       .  A
C407        H414   1.084       .  S
C408        C409   1.405       .  A
C409        C410   1.408       .  A
C409        N416   1.437       .  S
C410        C411   1.409       .  A
C410        H415   1.084       .  S
C411        C412   1.413       .  A
C412        N413   1.438       .  S
N413        H417   1.046       .  S
N413        H418   1.046       .  S
N416        H419   1.046       .  S
N416        H420   1.046       .  S
C421        C422   1.407       .  A
C421        C426   1.407       .  A
C421       H1058   1.083   1_554  S
C422        C423   1.420       .  A
C423        C424   1.393       .  A
C423        N430   1.433       .  S
C424        C425   1.404       .  A
C424        H429   1.084       .  S
C425        C426   1.415       .  A
C426       N1057   1.438       .  S
N427       C1056   1.438       .  S
N427        H431   1.046       .  S
N427       H1062   1.045       .  S
H428       C1051   1.083       .  S
N430        H433   1.046       .  S
N430        H434   1.044       .  S
H432       N1057   1.045       .  S
C435        C436   1.400       .  A
C435        C440   1.396       .  A
C435        H442   1.085       .  S
C436        C437   1.415       .  A
C437        C438   1.401       .  A
C437        N444   1.439       .  S
C438        C439   1.404       .  A
C438        H443   1.084       .  S
C439        C440   1.416       .  A
C440        N441   1.433       .  S
N441        H445   1.043       .  S
N441        H446   1.045       .  S
N444        H447   1.043       .  S
N444        H448   1.046       .  S
C449        C450   1.402       .  A
C449        C454   1.407       .  A
C449        H456   1.084       .  S
C450        C451   1.407       .  A
C451        C452   1.406       .  A
C451        N458   1.437       .  S
C452        C453   1.407       .  A
C452        H457   1.084       .  S
C453        C454   1.415       .  A
C454        N455   1.438       .  S
N455        H459   1.046       .  S
N455        H460   1.046       .  S
N458        H461   1.046       .  S
N458        H462   1.046       .  S
C463        C464   1.398       .  A
C463        C468   1.405       .  A
C463        H470   1.084       .  S
C464        C465   1.410       .  A
C465        C466   1.405       .  A
C465        N472   1.438       .  S
C466        C467   1.408       .  A
C466        H471   1.083       .  S
C467        C468   1.424       .  A
C468        N469   1.437       .  S
N469        H473   1.046       .  S
N469        H474   1.043       .  S
N472        H475   1.046       .  S
N472        H476   1.046       .  S
C477        C478   1.411       .  A
C477        C482   1.407       .  A
C477        H484   1.082       .  S
C478        C479   1.421       .  A
C479        C480   1.405       .  A
C479        N486   1.438       .  S
C480        C481   1.397       .  A
C480        H485   1.084       .  S
C481        C482   1.406       .  A
C482        N483   1.438       .  S
N483        H487   1.046       .  S
N483        H488   1.045       .  S
N486        H489   1.045       .  S
N486        H490   1.046       .  S
C491        C492   1.406       .  A
C491        C496   1.405       .  A
C491        H498   1.083       .  S
C492        C493   1.412       .  A
C493        C494   1.406       .  A
C493        N500   1.438       .  S
C494        C495   1.409       .  A
C494        H499   1.083       .  S
C495        C496   1.416       .  A
C496       N1127   1.438   1_554  S
N497       C1126   1.438       .  S
N497        H501   1.046       .  S
N497        H502   1.045       .  S
N500        H503   1.045       .  S
N500        H504   1.046       .  S
C505        C506   1.403       .  A
C505        C510   1.399       .  A
C505        H512   1.084       .  S
C506        C507   1.415       .  A
C507        C508   1.408       .  A
C507       N1144   1.438       .  S
C508        C509   1.407       .  A
C508       H1143   1.083   1_554  S
C509        C510   1.415       .  A
C510        N511   1.433       .  S
N511        H515   1.046       .  S
N511        H516   1.046       .  S
H513       C1138   1.083       .  S
N514       C1137   1.438       .  S
N514        H518   1.046       .  S
N514       H1147   1.045       .  S
H517       N1144   1.045       .  S
C519        C520   1.399       .  A
C519        C524   1.402       .  A
C519        H526   1.084       .  S
C520        C521   1.408       .  A
C521        C522   1.403       .  A
C521        N528   1.438       .  S
C522        C523   1.403       .  A
C522        H527   1.084       .  S
C523        C524   1.420       .  A
C524        N525   1.438       .  S
N525        H529   1.045       .  S
N525        H530   1.043   1_554  S
N528        H531   1.046       .  S
N528        H532   1.046       .  S
C533        C534   1.402       .  A
C533        C538   1.405       .  A
C533        H540   1.084       .  S
C534        C535   1.416       .  A
C535        C536   1.402       .  A
C535        N542   1.438       .  S
C536        C537   1.403       .  A
C536        H541   1.084       .  S
C537        C538   1.411       .  A
C538        N539   1.438       .  S
N539       H1173   1.046       .  S
N539       H1174   1.046   1_554  S
N542        H545   1.043       .  S
N542        H546   1.046       .  S
H543       N1169   1.046       .  S
H544       N1169   1.046       .  S
C547        C548   1.408       .  A
C547        C552   1.406       .  A
C547        H554   1.084       .  S
C548        C549   1.417       .  A
C549        C550   1.405       .  A
C549        N556   1.438       .  S
C550        C551   1.400       .  A
C550        H555   1.084       .  S
C551        C552   1.405       .  A
C552        N553   1.437       .  S
N553        H557   1.046       .  S
N553        H558   1.045       .  S
N556        H559   1.045       .  S
N556        H560   1.046       .  S
C561        C562   1.406       .  A
C561        C566   1.397       .  A
C561        H568   1.084       .  S
C562        C563   1.416       .  A
C563        C564   1.408       .  A
C563        N570   1.437       .  S
C564        C565   1.402       .  A
C564        H569   1.084       .  S
C565        C566   1.412       .  A
C566        N567   1.437       .  S
N567        H571   1.045       .  S
N567        H572   1.042       .  S
N570        H573   1.045       .  S
N570        H574   1.046       .  S
C575        C576   1.399       .  A
C575        C580   1.396       .  A
C575        H582   1.084       .  S
C576        C577   1.405       .  A
C577        C578   1.405       .  A
C577        N584   1.437       .  S
C578        C579   1.405       .  A
C578        H583   1.080       .  S
C579        C580   1.416       .  A
C580        N581   1.433       .  S
N581        H585   1.044       .  S
N581        H586   1.045       .  S
N584        H587   1.046       .  S
N584        H588   1.046       .  S
C589        C590   1.406       .  A
C589        C594   1.398       .  A
C589        H596   1.084       .  S
C590        C591   1.419       .  A
C591        C592   1.400       .  A
C591        N598   1.433       .  S
C592        C593   1.400       .  A
C592        H597   1.084       .  S
C593        C594   1.412       .  A
C594        N595   1.438       .  S
N595        H599   1.046       .  S
N595        H600   1.042       .  S
N598        H601   1.045       .  S
N598        H602   1.042       .  S
C603        C604   1.408       .  A
C603        C608   1.404       .  A
C603        H610   1.083       .  S
C604        C605   1.417       .  A
C605        C606   1.400       .  A
C605        N612   1.433       .  S
C606        C607   1.397       .  A
C606        H611   1.085       .  S
C607        C608   1.415       .  A
C608       N1239   1.439   1_554  S
N609       C1238   1.439       .  S
N609        H613   1.046       .  S
N609        H614   1.043       .  S
N612        H615   1.045       .  S
N612        H616   1.046       .  S
C617        C618   1.401       .  A
C617        C622   1.407       .  A
C617        H624   1.084       .  S
C618        C619   1.414       .  A
C619        C620   1.396       .  A
C619        N626   1.434       .  S
C620        C621   1.407       .  A
C620        H625   1.083       .  S
C621        C622   1.422       .  A
C622       N1253   1.438   1_554  S
N623       C1252   1.438       .  S
N623        H627   1.046       .  S
N623        H628   1.046       .  S
N626        H629   1.045       .  S
N626        H630   1.043       .  S
C631        C632   1.406       .  A
C631        C636   1.406       .  A
C631       C1234   1.495       .  S
C632        C633   1.402       .  A
C632        H637   1.083       .  S
C633        C634   1.401       .  A
C633       C1248   1.484       .  S
C634        C635   1.409       .  A
C634        H638   1.080       .  S
C635        C636   1.410       .  A
C635        C642   1.504       .  S
C636        H639   1.079       .  S
C640        C641   1.398       .  A
C640        C645   1.395       .  A
C640       C1206   1.469       .  S
C641        C642   1.410       .  A
C641        H646   1.080       .  S
C642        C643   1.412       .  A
C643        C644   1.407       .  A
C643        H647   1.081       .  S
C644        C645   1.400       .  A
C644       C1220   1.487       .  S
C645        H648   1.081       .  S
C649        C650   1.408       .  A
C649        C654   1.402       .  A
C649       C1192   1.492       .  S
C650        C651   1.413       .  A
C650        H655   1.079       .  S
C651        C652   1.414       .  A
C651        C660   1.512       .  S
C652        C653   1.400       .  A
C652        H656   1.078       .  S
C653        C654   1.397       .  A
C653       C1181   1.474       .  S
C654        H657   1.083       .  S
C658        C659   1.403       .  A
C658        C663   1.396       .  A
C658       C1164   1.477       .  S
C659        C660   1.417       .  A
C659        H664   1.079       .  S
C660        C661   1.415       .  A
C661        C662   1.401       .  A
C661        H665   1.078       .  S
C662        C663   1.396       .  A
C662       C1150   1.474       .  S
C663        H666   1.084       .  S
C667        C668   1.400       .  A
C667        C672   1.405       .  A
C667       C1136   1.490       .  S
C668        C669   1.402       .  A
C668        H673   1.083       .  S
C669        C670   1.407       .  A
C669       C1122   1.492       .  S
C670        C671   1.414       .  A
C670        H674   1.075       .  S
C671        C672   1.412       .  A
C671        C678   1.513       .  S
C672        H675   1.079       .  S
C676        C677   1.409       .  A
C676        C681   1.406       .  A
C676       C1108   1.500       .  S
C677        C678   1.414       .  A
C677        H682   1.078       .  S
C678        C679   1.411       .  A
C679        C680   1.401       .  A
C679        H683   1.077       .  S
C680        C681   1.400       .  A
C680       C1094   1.482       .  S
C681        H684   1.083       .  S
C685        C686   1.402       .  A
C685        C690   1.397       .  A
C685       C1080   1.477       .  S
C686        C687   1.416       .  A
C686        H691   1.079       .  S
C687        C688   1.412       .  A
C687        C696   1.512       .  S
C688        C689   1.402       .  A
C688        H692   1.075       .  S
C689        C690   1.400       .  A
C689       C1069   1.480       .  S
C690        H693   1.084       .  S
C694        C695   1.407       .  A
C694        C699   1.402       .  A
C694       C1055   1.492       .  S
C695        C696   1.411       .  A
C695        H700   1.078       .  S
C696        C697   1.415       .  A
C697        C698   1.401       .  A
C697        H701   1.078       .  S
C698        C699   1.396       .  A
C698       C1038   1.474       .  S
C699        H702   1.082       .  S
C703        C704   1.400       .  A
C703        C708   1.406       .  A
C703       C1013   1.483       .  S
C704        C705   1.398       .  A
C704        H709   1.083       .  S
C705        C706   1.401       .  A
C705       C1024   1.481       .  S
C706        C707   1.412       .  A
C706        H710   1.080       .  S
C707        C708   1.412       .  A
C707        C714   1.507       .  S
C708        H711   1.079       .  S
C712        C713   1.413       .  A
C712        C717   1.408       .  A
C712        C985   1.502       .  S
C713        C714   1.412       .  A
C713        H718   1.079       .  S
C714        C715   1.408       .  A
C715        C716   1.398       .  A
C715        H719   1.079       .  S
C716        C717   1.401       .  A
C716        C996   1.485       .  S
C717        H720   1.080       .  S
C721        C722   1.410       .  A
C721        C726   1.406       .  A
C721        C971   1.502       .  S
C722        C723   1.414       .  A
C722        H727   1.079       .  S
C723        C724   1.409       .  A
C723        C732   1.508       .  S
C724        C725   1.398       .  A
C724        H728   1.080       .  S
C725        C726   1.398       .  A
C725        C954   1.473       .  S
C726        H729   1.083       .  S
C730        C731   1.398       .  A
C730        C735   1.400       .  A
C730        C940   1.481       .  S
C731        C732   1.408       .  A
C731        H736   1.079       .  S
C732        C733   1.413       .  A
C733        C734   1.412       .  A
C733        H737   1.078       .  S
C734        C735   1.409       .  A
C734        C929   1.505       .  S
C735        H738   1.082       .  S
O739        C741   1.287       .  A
O740       Zr777   2.422       .  S
C741       C1237   1.467       .  S
O742        C744   1.286       .  A
O742       Zr754   2.435       .  S
O743        C744   1.288       .  A
O743       Zr778   2.436       .  S
C744        C982   1.471       .  S
O745        C747   1.287       .  A
O745       Zr754   2.437       .  S
O746        C747   1.286       .  A
O746       Zr777   2.422       .  S
C747       C1209   1.477       .  S
O748        C750   1.287       .  A
O749       Zr778   2.419       .  S
C750       C1010   1.466       .  S
Zr751       O752   2.434       .  S
Zr751       O757   2.370   1_554  S
Zr751       O758   2.370   1_554  S
O752        H795   0.990   1_554  S
O753        H794   0.990       .  S
O753        H798   0.990       .  S
Zr754       O755   2.436       .  S
Zr754       O756   2.435       .  S
Zr754       O758   2.371       .  S
Zr754       O757   2.370       .  S
Zr754       O782   2.370       .  S
Zr754       O784   2.374       .  S
O755        H796   0.990       .  S
O755        H799   0.990       .  S
O756        H789   0.990       .  S
O757       Zr777   2.376       .  S
O758       Zr778   2.383       .  S
O758        H785   0.966       .  S
O759        C761   1.286       .  A
O760       Zr778   2.434       .  S
C761        C926   1.472       .  S
O762        C764   1.292       .  A
O762       Zr774   2.457       .  S
O763        C764   1.283       .  A
O763       Zr777   2.410       .  S
C764       C1097   1.496       .  S
O765        C767   1.290       .  A
O765       Zr774   2.449       .  S
O766        C767   1.285       .  A
O766       Zr778   2.415       .  S
C767        C957   1.475       .  S
O768        C770   1.287       .  A
O769       Zr777   2.427       .  S
C770       C1125   1.494       .  S
Zr771       O772   2.436       .  S
Zr771       O779   2.370   1_554  S
Zr771       O780   2.369   1_554  S
O772        H792   0.990   1_554  S
O773        H793   0.990       .  S
Zr774       O775   2.433       .  S
Zr774       O776   2.434       .  S
Zr774       O780   2.370       .  S
Zr774       O779   2.373       .  S
Zr774       O784   2.375       .  S
Zr774       O782   2.369       .  S
O775        H791   0.990       .  S
O776        H790   0.990       .  S
O776        H800   0.990       .  S
Zr777       O780   2.376       .  S
Zr777       O782   2.384       .  S
Zr778       O779   2.385       .  S
Zr778       O784   2.384       .  S
O779        H787   0.966       .  S
O782        H786   0.966       .  S
O783        H788   0.966       .  S
O801        C803   1.289       .  A
O801       Zr813   2.447   1_455  S
O802        C803   1.286       .  A
O802       Zr839   2.419       .  S
C803       C1178   1.485       .  S
O804        C806   1.287       .  A
O805       Zr840   2.420       .  S
C806       C1027   1.467       .  S
O807        C809   1.288       .  A
O808       Zr839   2.424       .  S
C809       C1153   1.476       .  S
O810        C812   1.289       .  A
O810       Zr813   2.445       .  S
O811        C812   1.286       .  A
O811       Zr840   2.415       .  S
C812        C999   1.494       .  S
Zr813       O814   2.434       .  S
Zr813       O815   2.435       .  S
Zr813       O819   2.368   1_655  S
Zr813       O820   2.369       .  S
Zr813       O843   2.373       .  S
Zr813       O845   2.373   1_655  S
O814        H857   0.990       .  S
O815        H856   0.990   1_655  S
O815        H860   0.990       .  S
Zr816       O817   2.436       .  S
Zr816       O820   2.371   1_554  S
Zr816       O819   2.371   1_654  S
O817        H858   0.990   1_554  S
O818        H851   0.990   1_655  S
O819       Zr839   2.382       .  S
O820       Zr840   2.386       .  S
O820        H847   0.966       .  S
O821        C823   1.289       .  A
O821       Zr833   2.445       .  S
O822        C823   1.287       .  A
O822       Zr840   2.424       .  S
C823       C1083   1.484       .  S
O824        C826   1.285       .  A
O825       Zr839   2.430       .  S
C826       C1139   1.489       .  S
O827        C829   1.284       .  A
O828       Zr840   2.426       .  S
C829       C1052   1.488       .  S
O830        C832   1.287       .  A
O830       Zr833   2.440   1_455  S
O831        C832   1.286       .  A
O831       Zr839   2.425       .  S
C832       C1111   1.469       .  S
Zr833       O834   2.435       .  S
Zr833       O835   2.434       .  S
Zr833       O841   2.370       .  S
Zr833       O842   2.373   1_655  S
Zr833       O845   2.371   1_655  S
Zr833       O843   2.370       .  S
O834        H854   0.990       .  S
O834        H859   0.990       .  S
O835        H855   0.990       .  S
Zr836       O837   2.433       .  S
Zr836       O842   2.368   1_654  S
Zr836       O841   2.369   1_554  S
O837        H853   0.990   1_554  S
O838        H852   0.990       .  S
O838        H862   0.990       .  S
Zr839       O842   2.377       .  S
Zr839       O845   2.387       .  S
Zr840       O841   2.381       .  S
Zr840       O843   2.382       .  S
O841        H849   0.966       .  S
O844        H848   0.966       .  S
O845        H850   0.966       .  S
O863        C865   1.286       .  A
O863       Zr875   2.437       .  S
O864        C865   1.286       .  A
O864       Zr901   2.424       .  S
C865       C1223   1.466       .  S
O866        C868   1.288       .  A
O867       Zr902   2.430       .  S
C868       C1041   1.483       .  S
O869        C871   1.291       .  A
O870       Zr901   2.413       .  S
C871       C1251   1.495       .  S
O872        C874   1.288       .  A
O872       Zr875   2.445   1_545  S
O873        C874   1.284       .  A
O873       Zr902   2.413       .  S
C874       C1066   1.465       .  S
Zr875       O876   2.434       .  S
Zr875       O877   2.435       .  S
Zr875       O881   2.372       .  S
Zr875       O882   2.365   1_565  S
Zr875       O905   2.372   1_565  S
Zr875       O907   2.375       .  S
O876        H919   0.990       .  S
O877        H918   0.990       .  S
O877        H922   0.990       .  S
Zr878       O879   2.436       .  S
Zr878       O882   2.371   1_564  S
Zr878       O881   2.368   1_554  S
O879        H920   0.990   1_564  S
O880        H913   0.990       .  S
O881       Zr901   2.379       .  S
O882       Zr902   2.385       .  S
O882        H909   0.965       .  S
O883        C885   1.286       .  A
O883       Zr895   2.435   1_545  S
O884        C885   1.287       .  A
O884       Zr902   2.433       .  S
C885        C968   1.470       .  S
O886        C888   1.288       .  A
O887       Zr901   2.422       .  S
C888       C1167   1.477       .  S
O889        C891   1.290       .  A
O890       Zr902   2.416       .  S
C891        C943   1.494       .  S
O892        C894   1.286       .  A
O892       Zr895   2.438       .  S
O893        C894   1.286       .  A
O893       Zr901   2.425       .  S
C894       C1195   1.469       .  S
Zr895       O896   2.436       .  S
Zr895       O897   2.434       .  S
Zr895       O903   2.370   1_565  S
Zr895       O904   2.370       .  S
Zr895       O907   2.369       .  S
Zr895       O905   2.374   1_565  S
O896        H916   0.990   1_565  S
O896        H921   0.990   1_565  S
O897        H917   0.990   1_565  S
Zr898       O899   2.434       .  S
Zr898       O904   2.373   1_554  S
Zr898       O903   2.367   1_564  S
O899        H915   0.990   1_554  S
O900        H914   0.990   1_565  S
O900        H924   0.990       .  S
Zr901       O904   2.376       .  S
Zr901       O907   2.383       .  S
Zr902       O903   2.381       .  S
Zr902       O905   2.382       .  S
O903        H911   0.966       .  S
O906        H910   0.966       .  S
O907        H912   0.966       .  S
C925        C926   1.397       .  A
C925        C930   1.402       .  A
C925        H932   1.084       .  S
C926        C927   1.407       .  A
C927        C928   1.409       .  A
C928        C929   1.413       .  A
C928        H933   1.082       .  S
C929        C930   1.421       .  A
C930        N931   1.433       .  S
N931        H935   1.046       .  S
N931        H936   1.045       .  S
N934        H937   1.046       .  S
N934        H938   1.046       .  S
C939        C940   1.401       .  A
C939        C944   1.408       .  A
C939        H946   1.084       .  S
C940        C941   1.412       .  A
C941        C942   1.395       .  A
C941        N948   1.434       .  S
C942        C943   1.408       .  A
C942        H947   1.083       .  S
C943        C944   1.422       .  A
N945        H949   1.046       .  S
N945        H950   1.046   1_554  S
N948        H951   1.046       .  S
N948        H952   1.044       .  S
C953        C954   1.400       .  A
C953        C958   1.400       .  A
C953        H960   1.084       .  S
C954        C955   1.415       .  A
C955        C956   1.400       .  A
C955        N962   1.439       .  S
C956        C957   1.403       .  A
C956        H961   1.084       .  S
C957        C958   1.419       .  A
C958        N959   1.438       .  S
N959        H963   1.045       .  S
N959        H964   1.041       .  S
N962        H965   1.043       .  S
N962        H966   1.046       .  S
C967        C968   1.397       .  A
C967        C972   1.405       .  A
C967        H974   1.084       .  S
C968        C969   1.406       .  A
C969        C970   1.407       .  A
C969        N976   1.438       .  S
C970        C971   1.411       .  A
C970        H975   1.082       .  S
C971        C972   1.422       .  A
C972        N973   1.438       .  S
N973        H977   1.046       .  S
N973        H978   1.045       .  S
N976        H979   1.046       .  S
N976        H980   1.046       .  S
C981        C982   1.400       .  A
C981        C986   1.406       .  A
C981        H988   1.084       .  S
C982        C983   1.406       .  A
C983        C984   1.404       .  A
C983        N990   1.438       .  S
C984        C985   1.412       .  A
C984        H989   1.082       .  S
C985        C986   1.418       .  A
C986        N987   1.432       .  S
N987        H991   1.046       .  S
N987        H992   1.046       .  S
N990        H993   1.043       .  S
N990        H994   1.046       .  S
C995        C996   1.403       .  A
C995       C1000   1.402       .  A
C995       H1002   1.084       .  S
C996        C997   1.415       .  A
C997        C998   1.402       .  A
C997       N1004   1.437       .  S
C998        C999   1.411       .  A
C998       H1003   1.083       .  S
C999       C1000   1.418       .  A
C1000      N1001   1.439       .  S
N1001      H1005   1.046       .  S
N1001      H1006   1.046       .  S
N1004      H1007   1.043       .  S
N1004      H1008   1.045       .  S
C1009      C1010   1.400       .  A
C1009      C1014   1.397       .  A
C1010      C1011   1.414       .  A
C1011      C1012   1.401       .  A
C1011      N1018   1.439       .  S
C1012      C1013   1.406       .  A
C1012      H1017   1.084       .  S
C1013      C1014   1.416       .  A
C1014      N1015   1.433       .  S
N1015      H1020   1.045       .  S
N1018      H1021   1.043       .  S
N1018      H1022   1.046       .  S
C1023      C1024   1.405       .  A
C1023      C1028   1.406       .  A
C1023      H1030   1.084       .  S
C1024      C1025   1.421       .  A
C1025      C1026   1.399       .  A
C1025      N1032   1.438       .  S
C1026      C1027   1.398       .  A
C1026      H1031   1.084       .  S
C1027      C1028   1.407       .  A
N1029      H1033   1.046       .  S
N1029      H1034   1.046       .  S
N1032      H1035   1.042       .  S
N1032      H1036   1.046       .  S
C1037      C1038   1.401       .  A
C1037      C1042   1.403       .  A
C1037      H1044   1.084       .  S
C1038      C1039   1.405       .  A
C1039      C1040   1.408       .  A
C1039      N1046   1.437       .  S
C1040      C1041   1.409       .  A
C1040      H1045   1.084       .  S
C1041      C1042   1.413       .  A
C1042      N1043   1.438       .  S
N1043      H1047   1.046       .  S
N1043      H1048   1.046       .  S
N1046      H1049   1.046       .  S
N1046      H1050   1.046       .  S
C1051      C1052   1.407       .  A
C1051      C1056   1.407       .  A
C1052      C1053   1.420       .  A
C1053      C1054   1.393       .  A
C1053      N1060   1.433       .  S
C1054      C1055   1.404       .  A
C1054      H1059   1.084       .  S
C1055      C1056   1.415       .  A
N1057      H1061   1.046   1_554  S
N1060      H1063   1.046       .  S
N1060      H1064   1.044       .  S
C1065      C1066   1.400       .  A
C1065      C1070   1.396       .  A
C1065      H1072   1.085       .  S
C1066      C1067   1.415       .  A
C1067      C1068   1.401       .  A
C1067      N1074   1.439       .  S
C1068      C1069   1.404       .  A
C1068      H1073   1.084       .  S
C1069      C1070   1.416       .  A
C1070      N1071   1.433       .  S
N1071      H1075   1.043       .  S
N1071      H1076   1.045       .  S
N1074      H1077   1.043       .  S
N1074      H1078   1.046       .  S
C1079      C1080   1.402       .  A
C1079      C1084   1.407       .  A
C1079      H1086   1.084       .  S
C1080      C1081   1.407       .  A
C1081      C1082   1.406       .  A
C1081      N1088   1.437       .  S
C1082      C1083   1.407       .  A
C1082      H1087   1.084       .  S
C1083      C1084   1.415       .  A
C1084      N1085   1.438       .  S
N1085      H1089   1.046       .  S
N1085      H1090   1.046       .  S
N1088      H1091   1.046       .  S
N1088      H1092   1.046       .  S
C1093      C1094   1.398       .  A
C1093      C1098   1.405       .  A
C1093      H1100   1.084       .  S
C1094      C1095   1.410       .  A
C1095      C1096   1.405       .  A
C1095      N1102   1.438       .  S
C1096      C1097   1.408       .  A
C1096      H1101   1.083       .  S
C1097      C1098   1.424       .  A
C1098      N1099   1.437       .  S
N1099      H1103   1.046       .  S
N1099      H1104   1.043       .  S
N1102      H1105   1.046       .  S
N1102      H1106   1.046       .  S
C1107      C1108   1.411       .  A
C1107      C1112   1.407       .  A
C1107      H1114   1.082       .  S
C1108      C1109   1.421       .  A
C1109      C1110   1.405       .  A
C1109      N1116   1.438       .  S
C1110      C1111   1.397       .  A
C1110      H1115   1.084       .  S
C1111      C1112   1.406       .  A
C1112      N1113   1.438       .  S
N1113      H1117   1.046       .  S
N1113      H1118   1.045       .  S
N1116      H1119   1.045       .  S
N1116      H1120   1.046       .  S
C1121      C1122   1.406       .  A
C1121      C1126   1.405       .  A
C1121      H1128   1.083       .  S
C1122      C1123   1.412       .  A
C1123      C1124   1.406       .  A
C1123      N1130   1.438       .  S
C1124      C1125   1.409       .  A
C1124      H1129   1.083       .  S
C1125      C1126   1.416       .  A
N1127      H1131   1.046       .  S
N1127      H1132   1.045       .  S
N1130      H1133   1.045       .  S
N1130      H1134   1.046       .  S
C1135      C1136   1.403       .  A
C1135      C1140   1.399       .  A
C1135      H1142   1.084       .  S
C1136      C1137   1.415       .  A
C1137      C1138   1.408       .  A
C1138      C1139   1.407       .  A
C1139      C1140   1.415       .  A
C1140      N1141   1.433       .  S
N1141      H1145   1.046       .  S
N1141      H1146   1.046       .  S
N1144      H1148   1.046   1_554  S
C1149      C1150   1.399       .  A
C1149      C1154   1.402       .  A
C1149      H1156   1.084       .  S
C1150      C1151   1.408       .  A
C1151      C1152   1.403       .  A
C1151      N1158   1.438       .  S
C1152      C1153   1.403       .  A
C1152      H1157   1.084       .  S
C1153      C1154   1.420       .  A
C1154      N1155   1.438       .  S
N1155      H1159   1.045       .  S
N1155      H1160   1.043       .  S
N1158      H1161   1.046       .  S
N1158      H1162   1.046       .  S
C1163      C1164   1.402       .  A
C1163      C1168   1.405       .  A
C1163      H1170   1.084       .  S
C1164      C1165   1.416       .  A
C1165      C1166   1.402       .  A
C1165      N1172   1.438       .  S
C1166      C1167   1.403       .  A
C1166      H1171   1.084       .  S
C1167      C1168   1.411       .  A
C1168      N1169   1.438       .  S
N1172      H1175   1.043       .  S
N1172      H1176   1.046       .  S
C1177      C1178   1.408       .  A
C1177      C1182   1.406       .  A
C1177      H1184   1.084       .  S
C1178      C1179   1.417       .  A
C1179      C1180   1.405       .  A
C1179      N1186   1.438       .  S
C1180      C1181   1.400       .  A
C1180      H1185   1.084       .  S
C1181      C1182   1.405       .  A
C1182      N1183   1.437       .  S
N1183      H1187   1.046       .  S
N1183      H1188   1.045       .  S
N1186      H1189   1.045       .  S
N1186      H1190   1.046       .  S
C1191      C1192   1.406       .  A
C1191      C1196   1.397       .  A
C1191      H1198   1.084       .  S
C1192      C1193   1.416       .  A
C1193      C1194   1.408       .  A
C1193      N1200   1.437       .  S
C1194      C1195   1.402       .  A
C1194      H1199   1.084       .  S
C1195      C1196   1.412       .  A
C1196      N1197   1.437       .  S
N1197      H1201   1.045       .  S
N1197      H1202   1.042       .  S
N1200      H1203   1.045       .  S
N1200      H1204   1.046       .  S
C1205      C1206   1.399       .  A
C1205      C1210   1.396       .  A
C1205      H1212   1.084       .  S
C1206      C1207   1.405       .  A
C1207      C1208   1.405       .  A
C1207      N1214   1.437       .  S
C1208      C1209   1.405       .  A
C1208      H1213   1.080       .  S
C1209      C1210   1.416       .  A
C1210      N1211   1.433       .  S
N1211      H1215   1.044       .  S
N1211      H1216   1.045       .  S
N1214      H1217   1.046       .  S
N1214      H1218   1.046       .  S
C1219      C1220   1.406       .  A
C1219      C1224   1.398       .  A
C1219      H1226   1.084       .  S
C1220      C1221   1.419       .  A
C1221      C1222   1.400       .  A
C1221      N1228   1.433       .  S
C1222      C1223   1.400       .  A
C1222      H1227   1.084       .  S
C1223      C1224   1.412       .  A
C1224      N1225   1.438       .  S
N1225      H1229   1.046       .  S
N1225      H1230   1.042       .  S
N1228      H1231   1.045       .  S
N1228      H1232   1.042       .  S
C1233      C1234   1.408       .  A
C1233      C1238   1.404       .  A
C1233      H1240   1.083       .  S
C1234      C1235   1.417       .  A
C1235      C1236   1.400       .  A
C1235      N1242   1.433       .  S
C1236      C1237   1.397       .  A
C1236      H1241   1.085       .  S
C1237      C1238   1.415       .  A
N1239      H1243   1.046       .  S
N1239      H1244   1.043       .  S
N1242      H1245   1.045       .  S
N1242      H1246   1.046       .  S
C1247      C1248   1.401       .  A
C1247      C1252   1.407       .  A
C1247      H1254   1.084       .  S
C1248      C1249   1.414       .  A
C1249      C1250   1.396       .  A
C1249      N1256   1.434       .  S
C1250      C1251   1.407       .  A
C1250      H1255   1.083       .  S
C1251      C1252   1.422       .  A
N1253      H1257   1.046       .  S
N1253      H1258   1.046       .  S
N1256      H1259   1.045       .  S
N1256      H1260   1.043       .  S
