geometry optimzed in LAMMPS
_audit_creation_date              2020-12-01 
_audit_creation_method            'lammps2cif' 
_symmetry_space_group_name_H-M    'P1' 
_symmetry_Int_Tables_number       1 
_symmetry_cell_setting            triclinic 
loop_ 
_symmetry_equiv_pos_as_xyz 
  x,y,z 
_cell_length_a                    28.78709391 
_cell_length_b                    27.831710287401222 
_cell_length_c                    28.725649708891975 
_cell_angle_alpha                 89.18381405452354 
_cell_angle_beta                  90.15980745688873 
_cell_angle_gamma                 93.16702767344225 
loop_ 
_atom_site_label 
_atom_site_type_symbol 
_atom_site_fract_x 
_atom_site_fract_y 
_atom_site_fract_z 
_atom_site_charge 
C1          C  0.29486270  0.58570276  0.21919840     0.79400
N2          N  0.29005804  0.63374462  0.21405222    -0.78900
C3          C  0.25703458  0.65625256  0.23749048     0.81800
N4          N  0.22887631  0.63050946  0.26722194    -0.78800
C5          C  0.23234871  0.58254639  0.27291776     0.81900
N6          N  0.26547459  0.55977506  0.24886098    -0.80600
C7          C  0.20723967  0.93126687  0.20735284     0.79400
N8          N  0.23766120  0.95763692  0.23508376    -0.78900
C9          C  0.27291456  0.93582450  0.25766469     0.81800
N10         N  0.27727249  0.88798450  0.25284765    -0.78800
C11         C  0.24720809  0.86165333  0.22596519     0.81900
N12         N  0.21232082  0.88324507  0.20377966    -0.80600
O13         O  0.40543213  0.06623844  0.56178063    -0.81700
O14         O  0.57068201  0.93904900  0.51702127    -0.66400
O15         O  0.49285880  0.04307116  0.52493375    -1.13000
C16         C  0.41402779  0.98081147  0.39456430     1.05200
O17         O  0.56726174  0.92631134  0.44038517    -0.79600
O18         O  0.53983888  0.01594176  0.40686613    -0.67200
Ni19       Ni  0.46891302  0.05936340  0.58469943     1.34900
C20         C  0.51858017  0.05491737  0.40930125     0.83900
O21         O  0.57583467  0.01737626  0.56625785    -0.80100
O22         O  0.52989100  0.05591824  0.61415794    -0.90400
C23         C  0.58358788  0.91833591  0.48100673     0.83500
O24         O  0.45178810  0.99560867  0.60648748    -0.68600
O25         O  0.45523220  0.97167760  0.38233277    -0.87900
C26         C  0.47168921  0.95654031  0.60109511     0.84300
C27         C  0.56920853  0.03938464  0.60401318     1.05900
H28         H  0.47134085  0.93707913  0.48888394     0.37700
O29         O  0.48795506  0.96563786  0.47670856    -1.10600
O30         O  0.48091519  0.05706184  0.43199845    -0.67200
Ni31       Ni  0.44927335  0.01841323  0.47991978     1.26300
O32         O  0.50251758  0.95214073  0.57012421    -0.67500
O33         O  0.40531117  0.99249898  0.43591144    -0.79700
C34         C  0.39034150  0.07855943  0.52168103     0.83700
O35         O  0.41218610  0.07104130  0.48500970    -0.66900
Ni36       Ni  0.51078464  0.95243444  0.41554851     1.27400
Ni37       Ni  0.53233779  0.99102993  0.52173717     1.26100
H38         H  0.50965816  0.07144118  0.51264776     0.38200
C39         C  0.70648669  0.42935766  0.78594303     0.79400
N40         N  0.71136156  0.38113472  0.78759518    -0.78900
C41         C  0.74245355  0.36053016  0.75995592     0.81800
N42         N  0.76818224  0.38819932  0.72966815    -0.78800
C43         C  0.76469748  0.43639631  0.72757749     0.81900
N44         N  0.73418859  0.45756343  0.75639042    -0.80600
C45         C  0.79339934  0.08410494  0.77328931     0.79400
N46         N  0.79132228  0.13255894  0.77668589    -0.78900
C47         C  0.75686127  0.15578849  0.75536013     0.81800
N48         N  0.72512315  0.13078358  0.72934963    -0.78800
C49         C  0.72641576  0.08267243  0.72484814     0.81900
N50         N  0.76044702  0.05867832  0.74736860    -0.80600
C51         C  0.59056589  0.29471657  0.25859818     0.79400
N52         N  0.56605566  0.25737781  0.28081573    -0.78900
C53         C  0.58944541  0.22201602  0.30300522     0.81800
N54         N  0.63649335  0.22406509  0.30241921    -0.78800
C55         C  0.66057036  0.26011753  0.27976296     0.81900
N56         N  0.63759361  0.29501455  0.25804388    -0.80600
C57         C  0.92540756  0.23085111  0.22864255     0.79400
N58         N  0.87858028  0.22757234  0.23458863    -0.78900
C59         C  0.85795762  0.25512048  0.26586874     0.81800
N60         N  0.88381546  0.28706901  0.29098926    -0.78800
C61         C  0.93037299  0.29192584  0.28541999     0.81900
N62         N  0.95173877  0.26378788  0.25404444    -0.80600
O63         O  0.07266427  0.43325751  0.56809443    -0.81700
O64         O  0.91976909  0.57409150  0.50454461    -0.66400
O65         O  0.99228483  0.46717053  0.52454122    -1.13000
C66         C  0.08104433  0.53350968  0.39735169     1.05200
O67         O  0.91754746  0.56865088  0.42784707    -0.79600
O68         O  0.96248838  0.49269614  0.39033162    -0.67200
Ni69       Ni  0.01208105  0.45407368  0.58740519     1.34900
C70         C  0.98058532  0.45321138  0.40044911     0.83900
O71         O  0.90841745  0.49785464  0.55850343    -0.80100
O72         O  0.95277689  0.46941760  0.61508645    -0.90400
C73         C  0.90221548  0.58483915  0.46601125     0.83500
O74         O  0.03748106  0.51780137  0.59911828    -0.68600
O75         O  0.04265707  0.54954895  0.38306149    -0.87900
C76         C  0.01796146  0.55708388  0.59147163     0.84300
C77         C  0.91347651  0.48214013  0.59975905     1.05900
H78         H  0.01864115  0.57049673  0.48258616     0.37700
O79         O  0.00151794  0.54223868  0.47122078    -1.10600
O80         O  0.00968773  0.44896865  0.43329157    -0.67200
Ni81       Ni  0.03890815  0.48895735  0.48020004     1.26300
O82         O  0.98485362  0.56063477  0.56247347    -0.67500
O83         O  0.08527019  0.51221072  0.43650521    -0.79700
C84         C  0.08798925  0.41956460  0.52902816     0.83700
O85         O  0.07423350  0.43538608  0.49048411    -0.66900
Ni86       Ni  0.98108749  0.55686701  0.40892455     1.27400
Ni87       Ni  0.95512237  0.52071087  0.51536045     1.26100
H88         H  0.97525805  0.43874177  0.51336863     0.38200
C89         C  0.41936649  0.78640665  0.71123810     0.79400
N90         N  0.37265064  0.77881845  0.70891581    -0.78900
C91         C  0.35096746  0.74118357  0.73137320     0.81800
N92         N  0.37593666  0.71064580  0.75695324    -0.78800
C93         C  0.42293099  0.71725294  0.75985273     0.81900
N94         N  0.44489190  0.75561651  0.73699236    -0.80600
C95         C  0.07894570  0.71605384  0.70538572     0.79400
N96         N  0.12576306  0.71555993  0.70338427    -0.78900
C97         C  0.15285726  0.74663214  0.72840777     0.81800
N98         N  0.13281505  0.77825126  0.75629870    -0.78800
C99         C  0.08584614  0.77977776  0.75930120     0.81900
N100        N  0.05855698  0.74786143  0.73379788    -0.80600
O101        O  0.90148214  0.95379245  0.00023546    -0.81700
O102        O  0.06575542  0.05480116  0.91059060    -0.66400
O103        O  0.99214225  0.96453725  0.98458481    -1.13000
C104        C  0.98776501  0.10188810  0.08524226     1.05200
O105        O  0.10284809  0.06076055  0.97660759    -0.79600
O106        O  0.08282090  0.05004812  0.06579397    -0.67200
Ni107      Ni  0.94341306  0.92493590  0.95986830     1.34900
C108        C  0.06878779  0.00957302  0.08239772     0.83900
O109        O  0.03705913  0.95833562  0.89845579    -0.80100
O110        O  0.98476744  0.89715233  0.91723040    -0.90400
C111        C  0.10014410  0.07247244  0.93423525     0.83500
O112        O  0.92197094  0.96467567  0.91157477    -0.68600
O113        O  0.02179124  0.11928306  0.06050896    -0.87900
C114        C  0.93392052  0.00609960  0.89580157     0.84300
C115        C  0.01876031  0.91534446  0.89305292     1.05900
H116        H  0.99093729  0.07537988  0.97979330     0.37700
O117        O  0.01244015  0.05309386  0.99239282    -1.10600
O118        O  0.03046489  0.98838989  0.06954479    -0.67200
Ni119      Ni  0.97830906  0.01011743  0.03245096     1.26300
O120        O  0.97218470  0.02838712  0.90788393    -0.67500
O121        O  0.96824500  0.05958523  0.07868498    -0.79700
C122        C  0.90416759  0.94469739  0.04317870     0.83700
O123        O  0.93825052  0.96380718  0.06617964    -0.66900
Ni124      Ni  0.06231418  0.09068423  0.01758329     1.27400
Ni125      Ni  0.02588756  0.00777448  0.94427695     1.26100
H126        H  0.01418179  0.94290155  0.99732096     0.38200
C127        C  0.20844651  0.26718539  0.54550961     0.79400
N128        N  0.21692979  0.26688363  0.59175855    -0.78900
C129        C  0.23816307  0.23031666  0.61219395     0.81800
N130        N  0.25163557  0.19393913  0.58627407    -0.78800
C131        C  0.24378498  0.19328294  0.53986260     0.81900
N132        N  0.22226558  0.23037493  0.51876403    -0.80600
C133        C  0.22612696  0.22820005  0.87636570     0.79400
N134        N  0.23066944  0.22377439  0.83008550    -0.78900
C135        C  0.26442385  0.24876243  0.80645640     0.81800
N136        N  0.29452386  0.27884213  0.82933523    -0.78800
C137        C  0.29121737  0.28402068  0.87598841     0.81900
N138        N  0.25673812  0.25837433  0.90012080    -0.80600
O139        O  0.60628408  0.56874050  0.02518517    -0.81700
O140        O  0.45006415  0.45481456  0.93066291    -0.66400
O141        O  0.51597199  0.55102104  0.00324659    -1.13000
C142        C  0.51853560  0.41993998  0.11458578     1.05200
O143        O  0.40679728  0.44526157  0.99302134    -0.79600
O144        O  0.42189782  0.46661845  0.08182849    -0.67200
Ni145      Ni  0.56512883  0.59113778  0.97872381     1.34900
C146        C  0.43428762  0.50745871  0.09788480     0.83900
O147        O  0.47607045  0.55084399  0.91346522    -0.80100
O148        O  0.52555421  0.61380172  0.93065085    -0.90400
C149        C  0.41390039  0.43574979  0.95083643     0.83500
O150        O  0.59087610  0.54890976  0.93593598    -0.68600
O151        O  0.48663480  0.40080552  0.08883587    -0.87900
C152        C  0.58013818  0.50722425  0.92125780     0.84300
C153        C  0.49389112  0.59359705  0.90511800     1.05900
H154        H  0.52093995  0.44062866  0.00657239     0.37700
O155        O  0.49783989  0.46239076  0.01606430    -1.10600
O156        O  0.47330116  0.52898592  0.08741054    -0.67200
Ni157      Ni  0.52848972  0.50866805  0.05534634     1.26300
O158        O  0.54174407  0.48454507  0.93247208    -0.67500
O159        O  0.53797842  0.46216952  0.10611657    -0.79700
C160        C  0.59921115  0.57934617  0.06707896     0.83700
O161        O  0.56432769  0.55885278  0.08830588    -0.66900
Ni162      Ni  0.44774690  0.42334473  0.04011487     1.27400
Ni163      Ni  0.48581899  0.50463179  0.96398016     1.26100
H164        H  0.49254263  0.57235430  0.01286572     0.38200
C165        C  0.71990411  0.78950404  0.46437190     0.79400
N166        N  0.72482704  0.80597582  0.42009378    -0.78900
C167        C  0.75080723  0.78319731  0.38963473     0.81800
N168        N  0.77116682  0.74295157  0.40310399    -0.78800
C169        C  0.76610491  0.72499538  0.44681145     0.81900
N170        N  0.74019898  0.74838046  0.47829631    -0.80600
C171        C  0.77477972  0.80287089  0.12202444     0.79400
N172        N  0.77049585  0.81320499  0.16735128    -0.78900
C173        C  0.73774807  0.79028762  0.19394341     0.81800
N174        N  0.70868093  0.75581070  0.17521263    -0.78800
C175        C  0.71186861  0.74498690  0.12937652     0.81900
N176        N  0.74539273  0.76852572  0.10246408    -0.80600
C177        C  0.78459042  0.79144691  0.26480348    -0.10000
C178        C  0.74094613  0.79626156  0.24403739     0.06200
C179        C  0.70236118  0.80559660  0.27150055    -0.03700
C180        C  0.70700814  0.80530862  0.31977523    -0.08200
C181        C  0.74990792  0.79610640  0.34050857     0.05300
C182        C  0.78941469  0.79160147  0.31278789    -0.03200
Br183      Br  0.85039617  0.78483893  0.33863255    -0.02900
H184        H  0.81478796  0.78557545  0.24372598     0.09200
H185        H  0.67653867  0.80964293  0.34105717     0.07300
Br186      Br  0.64355592  0.81992929  0.24491109    -0.03300
C187        C  0.60815431  0.65678885  0.10938931    -0.10000
C188        C  0.62910266  0.61895628  0.08730385     0.06200
C189        C  0.67723344  0.62423262  0.07703994    -0.03700
C190        C  0.70327403  0.66624113  0.08930768    -0.08200
C191        C  0.68229064  0.70397312  0.11143023     0.05300
C192        C  0.63411528  0.69914309  0.12089847    -0.03200
Br193      Br  0.60115996  0.75115950  0.14528642    -0.02900
H194        H  0.57096611  0.65449287  0.11548830     0.09200
H195        H  0.74032526  0.66896680  0.08243705     0.07300
Br196      Br  0.70976694  0.57465248  0.04740463    -0.03300
C197        C  0.39941894  0.36424598  0.90055167    -0.10000
C198        C  0.38141888  0.39973873  0.92834798     0.06200
C199        C  0.33360117  0.39547333  0.94036864    -0.03700
C200        C  0.30533626  0.35599326  0.92543638    -0.08200
C201        C  0.32346292  0.32037496  0.89798580     0.05300
C202        C  0.37107699  0.32487494  0.88547889    -0.03200
Br203      Br  0.40005281  0.27695629  0.84979690    -0.02900
H204        H  0.43611174  0.36609497  0.89199176     0.09200
H205        H  0.26859839  0.35412325  0.93381971     0.07300
Br206      Br  0.30399432  0.44378735  0.97495156    -0.03300
C207        C  0.26646812  0.27729903  0.67867850    -0.10000
C208        C  0.25023151  0.23272940  0.66118812     0.06200
C209        C  0.24454524  0.19236639  0.69097040    -0.03700
C210        C  0.25293706  0.19796323  0.73820945    -0.08200
C211        C  0.26641712  0.24327813  0.75622437     0.05300
C212        C  0.27461065  0.28300894  0.72595866    -0.03200
Br213      Br  0.29181616  0.34688277  0.74667042    -0.02900
H214        H  0.27151117  0.30826320  0.65556037     0.09200
H215        H  0.24664597  0.16718606  0.76133752     0.07300
Br216      Br  0.22060500  0.13031273  0.67051829    -0.03300
C217        C  0.79638394  0.86113176  0.05947104    -0.10000
C218        C  0.81050382  0.83159889  0.09593388     0.06200
C219        C  0.85558016  0.83956094  0.11496307    -0.03700
C220        C  0.88488544  0.87776692  0.09873159    -0.08200
C221        C  0.87036878  0.90833525  0.06313520     0.05300
C222        C  0.82566451  0.89932398  0.04297865    -0.03200
Br223      Br  0.80057254  0.93944176  0.99506039    -0.02900
H224        H  0.76134586  0.85640573  0.04575087     0.09200
H225        H  0.91948876  0.88296763  0.11340513     0.07300
Br226      Br  0.87908315  0.79906359  0.16321905    -0.03300
C227        C  0.11694209  0.14869286  0.88970315    -0.10000
C228        C  0.13319161  0.11131555  0.91732334     0.06200
C229        C  0.17891872  0.11618246  0.93576905    -0.03700
C230        C  0.20706093  0.15785107  0.92679017    -0.08200
C231        C  0.19115412  0.19482473  0.89857126     0.05300
C232        C  0.14553635  0.18996525  0.88000408    -0.03200
Br233      Br  0.12101924  0.23839985  0.84008364    -0.02900
H234        H  0.08166725  0.14625472  0.87633599     0.09200
H235        H  0.24274693  0.15975527  0.93904630     0.07300
Br236      Br  0.20650627  0.06545758  0.97045391    -0.03300
C237        C  0.09763523  0.83723067  0.82503206    -0.10000
C238        C  0.06672608  0.81518934  0.79225068     0.06200
C239        C  0.02001701  0.82872950  0.79211925    -0.03700
C240        C  0.00556402  0.86222756  0.82454945    -0.08200
C241        C  0.03678898  0.88390792  0.85679758     0.05300
C242        C  0.08322513  0.87116780  0.85666221    -0.03200
Br243      Br  0.12759633  0.89645528  0.90124143    -0.02900
H244        H  0.13356618  0.82772897  0.82682036     0.09200
H245        H  0.96952086  0.87159529  0.82453083     0.07300
Br246      Br  0.97422758  0.80483951  0.74823467    -0.03300
C247        C  0.43241784  0.63562168  0.79386747    -0.10000
C248        C  0.44772004  0.68454519  0.79150754     0.06200
C249        C  0.48080871  0.70181797  0.82421122    -0.03700
C250        C  0.49527181  0.67132704  0.85996361    -0.08200
C251        C  0.47814468  0.62281179  0.86420282     0.05300
C252        C  0.44769282  0.60463746  0.82905143    -0.03200
Br253      Br  0.42581691  0.53829331  0.82571964    -0.02900
H254        H  0.40750931  0.62150019  0.76848448     0.09200
H255        H  0.51951153  0.68654093  0.88536676     0.07300
Br256      Br  0.50479144  0.76759361  0.82478417    -0.03300
C257        C  0.27653912  0.73065457  0.68974677    -0.10000
C258        C  0.30034667  0.73747977  0.73184609     0.06200
C259        C  0.27580871  0.74735869  0.77247821    -0.03700
C260        C  0.22769802  0.75019494  0.77052203    -0.08200
C261        C  0.20355336  0.74340794  0.72840285     0.05300
C262        C  0.22834377  0.73329243  0.68765564    -0.03200
Br263      Br  0.19943932  0.72678536  0.62751622    -0.02900
H264        H  0.29571370  0.72446199  0.65817264     0.09200
H265        H  0.20912973  0.75802284  0.80204467     0.07300
Br266      Br  0.30679410  0.76120908  0.83042089    -0.03300
C267        C  0.10941135  0.33876957  0.50639976    -0.10000
C268        C  0.12229669  0.38281326  0.52738309     0.06200
C269        C  0.16760292  0.39105772  0.54453375    -0.03700
C270        C  0.19810690  0.35385017  0.54403181    -0.08200
C271        C  0.18376178  0.30807725  0.52728007     0.05300
C272        C  0.13964754  0.30117646  0.50662040    -0.03200
Br273      Br  0.11678996  0.23976315  0.48405882    -0.02900
H274        H  0.07476869  0.33279363  0.49198471     0.09200
H275        H  0.23204507  0.35952956  0.56011139     0.07300
Br276      Br  0.18883420  0.45190458  0.56965140    -0.03300
C277        C  0.81825030  0.68037148  0.49841722    -0.10000
C278        C  0.79093539  0.68144116  0.45817525     0.06200
C279        C  0.79614128  0.64610390  0.42393731    -0.03700
C280        C  0.83167800  0.61426688  0.42787866    -0.08200
C281        C  0.86200930  0.61588384  0.46604637     0.05300
C282        C  0.85353457  0.64792993  0.50288098    -0.03200
Br283      Br  0.89077503  0.65337073  0.55851524    -0.02900
H284        H  0.81459775  0.70726178  0.52487679     0.09200
H285        H  0.83614504  0.58873959  0.40033636     0.07300
Br286      Br  0.75666479  0.64029635  0.36994707    -0.03300
C287        C  0.04615684  0.68584490  0.63099743    -0.10000
C288        C  0.05265572  0.67862824  0.67898038     0.06200
C289        C  0.04784416  0.63155568  0.69748073    -0.03700
C290        C  0.03731152  0.59263914  0.66826002    -0.08200
C291        C  0.03141108  0.59954318  0.62013454     0.05300
C292        C  0.03527199  0.64692965  0.60159353    -0.03200
Br293      Br  0.03089723  0.66032548  0.53606009    -0.02900
H294        H  0.05224456  0.72155344  0.61594602     0.09200
H295        H  0.03381836  0.55669572  0.68329110     0.07300
Br296      Br  0.05886027  0.61850416  0.76218941    -0.03300
C297        C  0.92114762  0.15241057  0.18785022    -0.10000
C298        C  0.94534147  0.19721586  0.19485739     0.06200
C299        C  0.98431863  0.20927780  0.16668458    -0.03700
C300        C  0.99706721  0.17767822  0.13181914    -0.08200
C301        C  0.97196443  0.13329753  0.12370851     0.05300
C302        C  0.93383548  0.12069687  0.15320497    -0.03200
Br303      Br  0.89641746  0.06157287  0.14873931    -0.02900
H304        H  0.89135771  0.14189967  0.20938665     0.09200
H305        H  0.02690483  0.18856917  0.11054329     0.07300
Br306      Br  0.02002012  0.26931423  0.17168026    -0.03300
C307        C  0.97451855  0.41510829  0.32260223    -0.10000
C308        C  0.96996395  0.41056997  0.37120326     0.06200
C309        C  0.95853900  0.36475212  0.39084822    -0.03700
C310        C  0.95139624  0.32486151  0.36201553    -0.08200
C311        C  0.95480839  0.32951096  0.31335738     0.05300
C312        C  0.96651712  0.37521577  0.29373068    -0.03200
Br313      Br  0.96648601  0.38586146  0.22765096    -0.02900
H314        H  0.98354896  0.45002019  0.30695267     0.09200
H315        H  0.93967644  0.29056582  0.37746659     0.07300
Br316      Br  0.94620938  0.35563703  0.45605864    -0.03300
C317        C  0.52618617  0.31798186  0.20592741    -0.10000
C318        C  0.56773818  0.33116797  0.22888551     0.06200
C319        C  0.58992304  0.37673619  0.21784384    -0.03700
C320        C  0.57300352  0.40534707  0.18152811    -0.08200
C321        C  0.53325539  0.39047897  0.15590343     0.05300
C322        C  0.50849596  0.34695128  0.17044013    -0.03200
Br323      Br  0.44983704  0.32334935  0.14486081    -0.02900
H324        H  0.50805011  0.28383015  0.21434265     0.09200
H325        H  0.59163040  0.43917122  0.17293592     0.07300
Br326      Br  0.64281600  0.40311635  0.25179066    -0.03300
C327        C  0.73715384  0.24892334  0.31573021    -0.10000
C328        C  0.71107262  0.25903487  0.27582060     0.06200
C329        C  0.73348091  0.26558285  0.23243627    -0.03700
C330        C  0.78147475  0.26255900  0.22977751    -0.08200
C331        C  0.80754115  0.25367699  0.26980481     0.05300
C332        C  0.78532607  0.24670588  0.31308602    -0.03200
Br333      Br  0.81905310  0.23234773  0.36890340    -0.02900
H334        H  0.72004073  0.24314508  0.34905468     0.09200
H335        H  0.79865990  0.26800522  0.19644151     0.07300
Br336      Br  0.70051941  0.27602595  0.17525225    -0.03300
C337        C  0.87640953  0.07951595  0.79871163    -0.10000
C338        C  0.82995794  0.06056218  0.80089807     0.06200
C339        C  0.81845882  0.02489232  0.83468107    -0.03700
C340        C  0.85277920  0.00879754  0.86491327    -0.08200
C341        C  0.89954810  0.02737428  0.86295161     0.05300
C342        C  0.91109649  0.06309499  0.82886974    -0.03200
Br343      Br  0.97342540  0.08981278  0.82061776    -0.02900
H344        H  0.88573198  0.10768378  0.77347656     0.09200
H345        H  0.84225465  0.98183888  0.89092344     0.07300
Br346      Br  0.75559947  0.00000364  0.84419620    -0.03300
C347        C  0.68794142  0.48933633  0.84581295    -0.10000
C348        C  0.67307544  0.45008458  0.81870476     0.06200
C349        C  0.62821805  0.42816920  0.82710065    -0.03700
C350        C  0.59909319  0.44636655  0.86109332    -0.08200
C351        C  0.61370139  0.48604025  0.88825146     0.05300
C352        C  0.65953444  0.50686837  0.88063413    -0.03200
Br353      Br  0.68803396  0.55777288  0.91737033    -0.02900
H354        H  0.72276798  0.50546646  0.84105846     0.09200
H355        H  0.56447912  0.42971105  0.86570176     0.07300
Br356      Br  0.60366277  0.37443761  0.79181817    -0.03300
C357        C  0.78994619  0.45820969  0.64732058    -0.10000
C358        C  0.79707541  0.46341861  0.69540711     0.06200
C359        C  0.84148846  0.47955475  0.71113195    -0.03700
C360        C  0.87856169  0.48669219  0.67954319    -0.08200
C361        C  0.87219988  0.47881362  0.63154564     0.05300
C362        C  0.82657152  0.46641416  0.61541113    -0.03200
Br363      Br  0.81248735  0.45474378  0.55097476    -0.02900
H364        H  0.75634108  0.44443398  0.63474237     0.09200
H365        H  0.91282742  0.49726361  0.69279093     0.07300
Br366      Br  0.85369356  0.48790532  0.77623667    -0.03300
C367        C  0.70757949  0.27783169  0.76822797    -0.10000
C368        C  0.74754483  0.30826789  0.76199493     0.06200
C369        C  0.79116291  0.28802153  0.75676570    -0.03700
C370        C  0.79367667  0.23808951  0.75629335    -0.08200
C371        C  0.75335803  0.20782915  0.76036418     0.05300
C372        C  0.71004025  0.22800680  0.76723697    -0.03200
Br373      Br  0.65315850  0.18972654  0.77701575    -0.02900
H374        H  0.67400120  0.29283922  0.77280150     0.09200
H375        H  0.82714688  0.22285597  0.75151330     0.07300
Br376      Br  0.84876361  0.32607223  0.75166879    -0.03300
C377        C  0.34438825  0.14244958  0.48707334    -0.10000
C378        C  0.34607890  0.10181678  0.51650808     0.06200
C379        C  0.30537376  0.08405774  0.53915244    -0.03700
C380        C  0.26561626  0.11047671  0.53674796    -0.08200
C381        C  0.26695912  0.15601820  0.51466256     0.05300
C382        C  0.30514928  0.16981654  0.48613261    -0.03200
Br383      Br  0.30896578  0.22968341  0.45206091    -0.02900
H384        H  0.37495744  0.15509355  0.46759471     0.09200
H385        H  0.23598349  0.09898388  0.55815292     0.07300
Br386      Br  0.30295674  0.02569523  0.57570537    -0.03300
C387        C  0.60577875  0.83392204  0.48343811    -0.10000
C388        C  0.61888540  0.88290598  0.48732717     0.06200
C389        C  0.66499935  0.89702598  0.49911406    -0.03700
C390        C  0.69839639  0.86248010  0.50175932    -0.08200
C391        C  0.68639074  0.81402485  0.49213792     0.05300
C392        C  0.63918402  0.79941900  0.48622089    -0.03200
Br393      Br  0.62031853  0.73386860  0.47283520    -0.02900
H394        H  0.56988790  0.82270321  0.47611582     0.09200
H395        H  0.73471912  0.87440177  0.50514135     0.07300
Br396      Br  0.68497127  0.96353800  0.50549796    -0.03300
C397        C  0.53871751  0.18559702  0.36583335    -0.10000
C398        C  0.56575958  0.17954705  0.32616283     0.06200
C399        C  0.57741062  0.13260946  0.31437780    -0.03700
C400        C  0.56244103  0.09298656  0.34215644    -0.08200
C401        C  0.53591601  0.09872596  0.38246461     0.05300
C402        C  0.52404534  0.14602840  0.39411374    -0.03200
Br403      Br  0.49132157  0.16050305  0.44995365    -0.02900
H404        H  0.53100338  0.22155969  0.37624758     0.09200
H405        H  0.57138782  0.05737839  0.33183344     0.07300
Br406      Br  0.61375357  0.12055871  0.26021572    -0.03300
C407        C  0.41770262  0.87376897  0.69656695    -0.10000
C408        C  0.43957957  0.83078726  0.68864016     0.06200
C409        C  0.47372747  0.83017720  0.65392291    -0.03700
C410        C  0.48341792  0.87133366  0.62609783    -0.08200
C411        C  0.46000548  0.91414837  0.63243645     0.05300
C412        C  0.42779312  0.91527088  0.66962356    -0.03200
Br413      Br  0.39553149  0.97113650  0.68662082    -0.02900
H414        H  0.39144736  0.87469558  0.72347668     0.09200
H415        H  0.50913149  0.86933731  0.59884821     0.07300
Br416      Br  0.50570057  0.77325085  0.64100864    -0.03300
C417        C  0.64292881  0.05977087  0.71464503    -0.10000
C418        C  0.68837959  0.05891348  0.69716108     0.06200
C419        C  0.69420711  0.04963064  0.64957972    -0.03700
C420        C  0.65519647  0.04247515  0.62040746    -0.08200
C421        C  0.60943449  0.04544224  0.63732019     0.05300
C422        C  0.60378153  0.05307961  0.68564589    -0.03200
Br423      Br  0.54411174  0.05526954  0.71510159    -0.02900
H424        H  0.63785638  0.06830150  0.75091264     0.09200
H425        H  0.66093356  0.03659200  0.58375303     0.07300
Br426      Br  0.75484802  0.05117439  0.62200367    -0.03300
C427        C  0.13148164  0.01969572  0.14218072    -0.10000
C428        C  0.09977467  0.98826149  0.11827055     0.06200
C429        C  0.10146358  0.93850638  0.12734289    -0.03700
C430        C  0.13544240  0.92154235  0.15770194    -0.08200
C431        C  0.16885008  0.95289240  0.17982570     0.05300
C432        C  0.16557118  0.00288739  0.17231206    -0.03200
Br433      Br  0.20710814  0.05112760  0.19955516    -0.02900
H434        H  0.13054985  0.05821877  0.13666738     0.09200
H435        H  0.13618572  0.88299832  0.16298257     0.07300
Br436      Br  0.06080715  0.89136096  0.09738893    -0.03300
C437        C  0.38738051  0.97625238  0.31141125    -0.10000
C438        C  0.37561271  0.97813178  0.35894591     0.06200
C439        C  0.32752348  0.97586552  0.37065775    -0.03700
C440        C  0.29361757  0.96700187  0.33599654    -0.08200
C441        C  0.30608617  0.96159380  0.28932419     0.05300
C442        C  0.35324689  0.96836635  0.27698796    -0.03200
Br443      Br  0.37256149  0.96507055  0.21332716    -0.02900
H444        H  0.42350699  0.97965274  0.30083489     0.09200
H445        H  0.25744575  0.96134593  0.34602398     0.07300
Br446      Br  0.30473876  0.98119094  0.43311647    -0.03300
C447        C  0.36457163  0.49801862  0.14960607    -0.10000
C448        C  0.40093582  0.52863790  0.13093856     0.06200
C449        C  0.40321437  0.57735059  0.14425703    -0.03700
C450        C  0.36932451  0.59407790  0.17418278    -0.08200
C451        C  0.33214170  0.56368362  0.19158905     0.05300
C452        C  0.33055724  0.51478081  0.17916093    -0.03200
Br453      Br  0.28177180  0.46888297  0.19822154    -0.02900
H454        H  0.36189127  0.46028277  0.14071534     0.09200
H455        H  0.37184696  0.63177478  0.18324978     0.07300
Br456      Br  0.44981438  0.62392323  0.12158821    -0.03300
C457        C  0.11824628  0.52910097  0.31896868    -0.10000
C458        C  0.12255707  0.53965485  0.36660499     0.06200
C459        C  0.16622107  0.55730786  0.38357670    -0.03700
C460        C  0.20361034  0.56616447  0.35282941    -0.08000
C461        C  0.19878801  0.55737484  0.30501557     0.05300
C462        C  0.15587321  0.53772914  0.28833558    -0.03200
Br463      Br  0.14603152  0.52634039  0.22326642    -0.02900
H464        H  0.08512787  0.51521033  0.30530072     0.09200
H465        H  0.23576999  0.58311542  0.36584870     0.07300
Br466      Br  0.17524535  0.57591098  0.44719672    -0.03300
C467        C  0.29302851  0.73743421  0.22010295    -0.10000
C468        C  0.25296390  0.70860213  0.23166213     0.06200
C469        C  0.21031399  0.73067648  0.23765676    -0.03700
C470        C  0.20913043  0.78061511  0.23413530    -0.08200
C471        C  0.24959212  0.80925846  0.22469010     0.05300
C472        C  0.29161179  0.78737369  0.21653344    -0.03200
Br473      Br  0.34734553  0.82371501  0.19823292    -0.02900
H474        H  0.32586935  0.72121480  0.21447255     0.09200
H475        H  0.17651155  0.79729532  0.23979563     0.07300
Br476      Br  0.15188264  0.69554175  0.24872938    -0.03300
loop_ 
_geom_bond_atom_site_label_1 
_geom_bond_atom_site_label_2 
_geom_bond_distance 
_geom_bond_site_symmetry_2 
_ccdc_geom_bond_type 
C1            N2   1.358       .  A
C1            N6   1.372       .  A
C1          C451   1.499       .  S
N2            C3   1.353       .  A
C3            N4   1.350       .  A
C3          C468   1.475       .  S
N4            C5   1.352       .  A
C5            N6   1.368       .  A
C5          C461   1.479       .  S
C7            N8   1.372       .  A
C7           N12   1.358       .  A
C7          C431   1.505       .  S
N8            C9   1.368       .  A
C9           N10   1.353       .  A
C9          C441   1.480       .  S
N10          C11   1.351       .  A
C11          N12   1.352       .  A
C11         C471   1.465       .  S
O13         Ni19   1.959       .  S
O13          C34   1.279       .  A
O14         Ni37   1.874       .  S
O14          C23   1.258       .  A
O15         Ni19   1.921       .  S
O15         Ni37   1.893   1_545  S
O15         Ni31   1.907       .  S
O15          H38   0.966       .  S
C16         C438   1.504       .  S
C16          O33   1.265       .  A
C16          O25   1.278       .  A
O17         Ni36   1.947       .  S
O17          C23   1.278       .  A
O18         Ni36   1.926   1_545  S
O18          C20   1.277       .  A
Ni19         O22   1.953       .  S
Ni19         O24   1.912   1_545  S
C20         C401   1.496       .  S
C20          O30   1.271       .  A
O21         Ni37   1.912   1_545  S
O21          C27   1.273       .  A
O22          C27   1.281       .  A
C23         C388   1.464       .  S
O24          C26   1.268       .  A
O25         Ni36   1.956       .  S
C26         C411   1.498       .  S
C26          O32   1.270       .  A
C27         C421   1.504       .  S
H28          O29   0.966       .  S
O29         Ni37   1.929       .  S
O29         Ni31   1.895   1_565  S
O29         Ni36   1.925       .  S
O30         Ni31   1.933       .  S
Ni31         O35   1.867       .  S
Ni31         O33   1.907   1_545  S
O32         Ni37   1.924       .  S
C34         C378   1.467       .  S
C34          O35   1.254       .  A
C39          N40   1.357       .  A
C39          N44   1.374       .  A
C39         C348   1.492       .  S
N40          C41   1.354       .  A
C41          N42   1.349       .  A
C41         C368   1.470       .  S
N42          C43   1.351       .  A
C43          N44   1.371       .  A
C43         C358   1.482       .  S
C45          N46   1.358       .  A
C45          N50   1.375       .  A
C45         C338   1.491       .  S
N46          C47   1.354       .  A
C47          N48   1.348       .  A
C47         C371   1.467       .  S
N48          C49   1.350       .  A
C49          N50   1.371       .  A
C49         C418   1.483       .  S
C51          N52   1.374       .  A
C51          N56   1.353       .  A
C51         C318   1.495       .  S
N52          C53   1.372       .  A
C53          N54   1.353       .  A
C53         C398   1.482       .  S
N54          C55   1.348       .  A
C55          N56   1.350       .  A
C55         C328   1.461       .  S
C57          N58   1.357       .  A
C57          N62   1.374       .  A
C57         C298   1.495       .  S
N58          C59   1.349       .  A
C59          N60   1.344       .  A
C59         C331   1.454       .  S
N60          C61   1.349       .  A
C61          N62   1.371       .  A
C61         C311   1.474       .  S
O63         Ni69   1.952       .  S
O63          C84   1.278       .  A
O64         Ni87   1.869       .  S
O64          C73   1.255       .  A
O65         Ni69   1.928   1_655  S
O65         Ni87   1.897       .  S
O65         Ni81   1.921   1_655  S
O65          H88   0.966       .  S
C66         C458   1.489       .  S
C66          O83   1.273       .  A
C66          O75   1.279       .  A
O67         Ni86   1.956       .  S
O67          C73   1.280       .  A
O68         Ni86   1.919       .  S
O68          C70   1.272       .  A
Ni69         O72   1.956   1_455  S
Ni69         O74   1.915       .  S
C70         C308   1.481       .  S
C70          O80   1.269   1_655  A
O71         Ni87   1.908       .  S
O71          C77   1.268       .  A
O72          C77   1.279       .  A
C73         C281   1.482       .  S
O74          C76   1.273       .  A
O75         Ni86   1.946   1_455  S
C76         C291   1.483       .  S
C76          O82   1.271   1_455  A
C77         C361   1.499       .  S
H78          O79   0.965       .  S
O79         Ni87   1.910   1_455  S
O79         Ni81   1.894       .  S
O79         Ni86   1.927   1_455  S
O80         Ni81   1.922       .  S
Ni81         O85   1.870       .  S
Ni81         O83   1.915       .  S
O82         Ni87   1.931       .  S
C84         C268   1.462       .  S
C84          O85   1.257       .  A
C89          N90   1.351       .  A
C89          N94   1.368       .  A
C89         C408   1.478       .  S
N90          C91   1.347       .  A
C91          N92   1.351       .  A
C91         C258   1.455       .  S
N92          C93   1.358       .  A
C93          N94   1.371       .  A
C93         C248   1.486       .  S
C95          N96   1.350       .  A
C95         N100   1.369       .  A
C95         C288   1.471       .  S
N96          C97   1.346       .  A
C97          N98   1.352       .  A
C97         C261   1.467       .  S
N98          C99   1.358       .  A
C99         N100   1.372       .  A
C99         C238   1.503       .  S
O101       Ni107   1.894   1_554  S
O101        C122   1.259       .  A
O102       Ni125   1.942       .  S
O102        C111   1.279       .  A
O103       Ni107   1.880       .  S
O103       Ni125   1.889   1_665  S
O103       Ni119   1.941   1_566  S
O103        H126   0.966   1_655  S
C104        C301   1.505       .  S
C104        O121   1.292       .  A
C104        O113   1.281   1_655  A
O105       Ni124   1.893   1_556  S
O105        C111   1.259       .  A
O106       Ni124   1.889       .  S
O106        C108   1.263       .  A
Ni107       O110   1.911       .  S
Ni107       O112   1.886       .  S
C108        C428   1.498   1_545  S
C108        O118   1.278   1_545  A
O109       Ni125   1.958   1_565  S
O109        C115   1.292       .  A
O110        C115   1.279   1_655  A
C111        C228   1.478       .  S
O112        C114   1.263   1_565  A
O113       Ni124   1.911       .  S
C114        C341   1.505       .  S
C114        O120   1.283       .  A
C115        C241   1.483       .  S
H116        O117   0.966   1_655  S
O117       Ni125   1.938       .  S
O117       Ni119   1.886   1_456  S
O117       Ni124   1.879   1_556  S
O118       Ni119   1.957   1_465  S
Ni119       O123   1.933   1_545  S
Ni119       O121   1.960       .  S
O120       Ni125   1.971   1_655  S
C122        C221   1.476       .  S
C122        O123   1.277       .  A
C127        N128   1.350       .  A
C127        N132   1.366       .  A
C127        C271   1.464       .  S
N128        C129   1.343       .  A
C129        N130   1.340       .  A
C129        C208   1.450       .  S
N130        C131   1.352       .  A
C131        N132   1.367       .  A
C131        C381   1.465       .  S
C133        N134   1.344       .  A
C133        N138   1.371       .  A
C133        C231   1.472       .  S
N134        C135   1.343       .  A
C135        N136   1.348       .  A
C135        C211   1.455       .  S
N136        C137   1.354       .  A
C137        N138   1.374       .  A
C137        C201   1.482       .  S
O139       Ni145   1.903   1_554  S
O139        C160   1.263       .  A
O140       Ni163   1.942       .  S
O140        C149   1.279       .  A
O141       Ni145   1.885   1_554  S
O141       Ni163   1.899   1_554  S
O141       Ni157   1.937       .  S
O141        H164   0.966       .  S
C142        C321   1.506       .  S
C142        O159   1.294       .  A
C142        O151   1.276       .  A
O143       Ni162   1.908   1_556  S
O143        C149   1.264       .  A
O144       Ni162   1.893       .  S
O144        C146   1.265       .  A
Ni145       O148   1.910       .  S
Ni145       O150   1.893       .  S
C146        C448   1.501       .  S
C146        O156   1.278       .  A
O147       Ni163   1.955       .  S
O147        C153   1.289       .  A
O148        C153   1.279       .  A
C149        C198   1.486       .  S
O150        C152   1.262       .  A
O151       Ni162   1.910       .  S
C152        C351   1.505       .  S
C152        O158   1.282       .  A
C153        C251   1.503       .  S
H154        O155   0.966       .  S
O155       Ni163   1.932   1_554  S
O155       Ni157   1.903       .  S
O155       Ni162   1.884       .  S
O156       Ni157   1.953       .  S
Ni157       O161   1.945       .  S
Ni157       O159   1.965       .  S
O158       Ni163   1.961       .  S
C160        C188   1.485       .  S
C160        O161   1.279       .  A
C165        N166   1.351       .  A
C165        N170   1.368       .  A
C165        C391   1.458       .  S
N166        C167   1.341       .  A
C167        N168   1.344       .  A
C167        C181   1.452       .  S
N168        C169   1.350       .  A
C169        N170   1.368       .  A
C169        C278   1.473       .  S
C171        N172   1.345       .  A
C171        N176   1.367       .  A
C171        C218   1.468       .  S
N172        C173   1.343       .  A
C173        N174   1.354       .  A
C173        C178   1.453       .  S
N174        C175   1.359       .  A
C175        N176   1.370       .  A
C175        C191   1.483       .  S
C177        C178   1.402       .  A
C177        C182   1.385       .  A
C177        H184   1.082       .  S
C178        C179   1.402       .  A
C179        C180   1.393       .  A
C179       Br186   1.915       .  S
C180        C181   1.404       .  A
C180        H185   1.084       .  S
C181        C182   1.402       .  A
C182       Br183   1.922       .  S
C187        C188   1.402       .  A
C187        C192   1.403       .  A
C187        H194   1.084       .  S
C188        C189   1.417       .  A
C189        C190   1.402       .  A
C189       Br196   1.920       .  S
C190        C191   1.401       .  A
C190        H195   1.084       .  S
C191        C192   1.413       .  A
C192       Br193   1.916       .  S
C197        C198   1.401       .  A
C197        C202   1.402       .  A
C197        H204   1.083       .  S
C198        C199   1.418       .  A
C199        C200   1.402       .  A
C199       Br206   1.921       .  S
C200        C201   1.399       .  A
C200        H205   1.084       .  S
C201        C202   1.416       .  A
C202       Br203   1.921       .  S
C207        C208   1.401       .  A
C207        C212   1.387       .  A
C207        H214   1.084       .  S
C208        C209   1.405       .  A
C209        C210   1.387       .  A
C209       Br216   1.923       .  S
C210        C211   1.404       .  A
C210        H215   1.084       .  S
C211        C212   1.407       .  A
C212       Br213   1.921       .  S
C217        C218   1.396       .  A
C217        C222   1.398       .  A
C217        H224   1.084       .  S
C218        C219   1.414       .  A
C219        C220   1.396       .  A
C219       Br226   1.919       .  S
C220        C221   1.399       .  A
C220        H225   1.084       .  S
C221        C222   1.421       .  A
C222       Br223   1.924   1_554  S
C227        C228   1.400       .  A
C227        C232   1.401       .  A
C227        H234   1.084       .  S
C228        C229   1.418       .  A
C229        C230   1.399       .  A
C229       Br236   1.922       .  S
C230        C231   1.397       .  A
C230        H235   1.084       .  S
C231        C232   1.416       .  A
C232       Br233   1.920       .  S
C237        C238   1.416       .  A
C237        C242   1.400       .  A
C237        H244   1.083       .  S
C238        C239   1.416       .  A
C239        C240   1.407       .  A
C239       Br246   1.920   1_455  S
C240        C241   1.408       .  A
C240        H245   1.084   1_455  S
C241        C242   1.402       .  A
C242       Br243   1.919       .  S
C247        C248   1.409       .  A
C247        C252   1.405       .  A
C247        H254   1.084       .  S
C248        C249   1.406       .  A
C249        C250   1.400       .  A
C249       Br256   1.921       .  S
C250        C251   1.415       .  A
C250        H255   1.083       .  S
C251        C252   1.416       .  A
C252       Br253   1.921       .  S
C257        C258   1.399       .  A
C257        C262   1.394       .  A
C257        H264   1.084       .  S
C258        C259   1.404       .  A
C259        C260   1.392       .  A
C259       Br266   1.920       .  S
C260        C261   1.404       .  A
C260        H265   1.084       .  S
C261        C262   1.412       .  A
C262       Br263   1.922       .  S
C267        C268   1.405       .  A
C267        C272   1.397       .  A
C267        H274   1.084       .  S
C268        C269   1.401       .  A
C269        C270   1.395       .  A
C269       Br276   1.918       .  S
C270        C271   1.408       .  A
C270        H275   1.084       .  S
C271        C272   1.405       .  A
C272       Br273   1.918       .  S
C277        C278   1.397       .  A
C277        C282   1.400       .  A
C277        H284   1.084       .  S
C278        C279   1.415       .  A
C279        C280   1.393       .  A
C279       Br286   1.924       .  S
C280        C281   1.399       .  A
C280        H285   1.083       .  S
C281        C282   1.424       .  A
C282       Br283   1.925       .  S
C287        C288   1.404       .  A
C287        C292   1.404       .  A
C287        H294   1.084       .  S
C288        C289   1.407       .  A
C289        C290   1.399       .  A
C289       Br296   1.918       .  S
C290        C291   1.404       .  A
C290        H295   1.084       .  S
C291        C292   1.414       .  A
C292       Br293   1.919       .  S
C297        C298   1.411       .  A
C297        C302   1.402       .  A
C297        H304   1.083       .  S
C298        C299   1.408       .  A
C299        C300   1.405       .  A
C299       Br306   1.920   1_655  S
C300        C301   1.418       .  A
C300        H305   1.083   1_655  S
C301        C302   1.414       .  A
C302       Br303   1.922       .  S
C307        C308   1.406       .  A
C307        C312   1.404       .  A
C307        H314   1.084       .  S
C308        C309   1.410       .  A
C309        C310   1.400       .  A
C309       Br316   1.918       .  S
C310        C311   1.405       .  A
C310        H315   1.084       .  S
C311        C312   1.408       .  A
C312       Br313   1.917       .  S
C317        C318   1.398       .  A
C317        C322   1.403       .  A
C317        H324   1.083       .  S
C318        C319   1.420       .  A
C319        C320   1.406       .  A
C319       Br326   1.923       .  S
C320        C321   1.405       .  A
C320        H325   1.083       .  S
C321        C322   1.429       .  A
C322       Br323   1.925       .  S
C327        C328   1.402       .  A
C327        C332   1.394       .  A
C327        H334   1.084       .  S
C328        C329   1.410       .  A
C329        C330   1.391       .  A
C329       Br336   1.921       .  S
C330        C331   1.398       .  A
C330        H335   1.084       .  S
C331        C332   1.406       .  A
C332       Br333   1.921       .  S
C337        C338   1.411       .  A
C337        C342   1.411       .  A
C337        H344   1.083       .  S
C338        C339   1.405       .  A
C339        C340   1.401       .  A
C339       Br346   1.920       .  S
C340        C341   1.416       .  A
C340        H345   1.083   1_545  S
C341        C342   1.412       .  A
C342       Br343   1.918       .  S
C347        C348   1.398       .  A
C347        C352   1.404       .  A
C347        H354   1.084       .  S
C348        C349   1.417       .  A
C349        C350   1.407       .  A
C349       Br356   1.920       .  S
C350        C351   1.406       .  A
C350        H355   1.083       .  S
C351        C352   1.428       .  A
C352       Br353   1.924       .  S
C357        C358   1.404       .  A
C357        C362   1.406       .  A
C357        H364   1.084       .  S
C358        C359   1.407       .  A
C359        C360   1.407       .  A
C359       Br366   1.917       .  S
C360        C361   1.409       .  A
C360        H365   1.083       .  S
C361        C362   1.418       .  A
C362       Br363   1.922       .  S
C367        C368   1.401       .  A
C367        C372   1.393       .  A
C367        H374   1.083       .  S
C368        C369   1.414       .  A
C369        C370   1.396       .  A
C369       Br376   1.922       .  S
C370        C371   1.400       .  A
C370        H375   1.084       .  S
C371        C372   1.411       .  A
C372       Br373   1.923       .  S
C377        C378   1.405       .  A
C377        C382   1.397       .  A
C377        H384   1.084       .  S
C378        C379   1.404       .  A
C379        C380   1.395       .  A
C379       Br386   1.920       .  S
C380        C381   1.408       .  A
C380        H385   1.084       .  S
C381        C382   1.406       .  A
C382       Br383   1.918       .  S
C387        C388   1.400       .  A
C387        C392   1.397       .  A
C387        H394   1.084       .  S
C388        C389   1.405       .  A
C389        C390   1.398       .  A
C389       Br396   1.919       .  S
C390        C391   1.405       .  A
C390        H395   1.084       .  S
C391        C392   1.407       .  A
C392       Br393   1.918       .  S
C397        C398   1.399       .  A
C397        C402   1.406       .  A
C397        H404   1.084       .  S
C398        C399   1.413       .  A
C399        C400   1.401       .  A
C399       Br406   1.921       .  S
C400        C401   1.405       .  A
C400        H405   1.083       .  S
C401        C402   1.423       .  A
C402       Br403   1.921       .  S
C407        C408   1.404       .  A
C407        C412   1.399       .  A
C407        H414   1.084       .  S
C408        C409   1.403       .  A
C409        C410   1.403       .  A
C409       Br416   1.917       .  S
C410        C411   1.415       .  A
C410        H415   1.083       .  S
C411        C412   1.418       .  A
C412       Br413   1.924       .  S
C417        C418   1.404       .  A
C417        C422   1.405       .  A
C417        H424   1.084       .  S
C418        C419   1.407       .  A
C419        C420   1.406       .  A
C419       Br426   1.917       .  S
C420        C421   1.412       .  A
C420        H425   1.082       .  S
C421        C422   1.419       .  A
C422       Br423   1.921       .  S
C427        C428   1.413   1_545  A
C427        C432   1.402       .  A
C427        H434   1.083       .  S
C428        C429   1.409       .  A
C429        C430   1.405       .  A
C429       Br436   1.921       .  S
C430        C431   1.418       .  A
C430        H435   1.083       .  S
C431        C432   1.413   1_565  A
C432       Br433   1.921       .  S
C437        C438   1.410       .  A
C437        C442   1.403       .  A
C437        H444   1.083       .  S
C438        C439   1.423       .  A
C439        C440   1.407       .  A
C439       Br446   1.923       .  S
C440        C441   1.401       .  A
C440        H445   1.084       .  S
C441        C442   1.406       .  A
C442       Br443   1.918       .  S
C447        C448   1.415       .  A
C447        C452   1.401       .  A
C447        H454   1.083       .  S
C448        C449   1.412       .  A
C449        C450   1.405       .  A
C449       Br456   1.922       .  S
C450        C451   1.415       .  A
C450        H455   1.083       .  S
C451        C452   1.410       .  A
C452       Br453   1.921       .  S
C457        C458   1.407       .  A
C457        C462   1.406       .  A
C457        H464   1.084       .  S
C458        C459   1.412       .  A
C459        C460   1.403       .  A
C459       Br466   1.920       .  S
C460        C461   1.404       .  A
C460        H465   1.084       .  S
C461        C462   1.409       .  A
C462       Br463   1.918       .  S
C467        C468   1.406       .  A
C467        C472   1.395       .  A
C467        H474   1.083       .  S
C468        C469   1.415       .  A
C469        C470   1.394       .  A
C469       Br476   1.923       .  S
C470        C471   1.400       .  A
C470        H475   1.084       .  S
C471        C472   1.406       .  A
C472       Br473   1.919       .  S
