geometry optimzed in LAMMPS
_audit_creation_date              2020-12-01 
_audit_creation_method            'lammps2cif' 
_symmetry_space_group_name_H-M    'P1' 
_symmetry_Int_Tables_number       1 
_symmetry_cell_setting            triclinic 
loop_ 
_symmetry_equiv_pos_as_xyz 
  x,y,z 
_cell_length_a                    35.47238352 
_cell_length_b                    35.48581735999806 
_cell_length_c                    35.18408769205724 
_cell_angle_alpha                 89.62106904026237 
_cell_angle_beta                  89.62467708855876 
_cell_angle_gamma                 119.98980761363998 
loop_ 
_atom_site_label 
_atom_site_type_symbol 
_atom_site_fract_x 
_atom_site_fract_y 
_atom_site_fract_z 
_atom_site_charge 
C1          C  0.48689758  0.71818301  0.10585091     0.81700
N2          N  0.48805275  0.74978700  0.08313036    -0.76600
C3          C  0.48916335  0.78514792  0.09875460     0.84100
N4          N  0.48911046  0.78889511  0.13711200    -0.76600
C5          C  0.48813540  0.75745143  0.16001694     0.84200
N6          N  0.48701838  0.72202127  0.14422024    -0.78300
C7          C  0.49138912  0.71280757  0.32915106     0.81700
N8          N  0.48825637  0.74603695  0.34467217    -0.76600
C9          C  0.48590806  0.77574280  0.32183855     0.84100
N10         N  0.48665325  0.77217924  0.28349479    -0.76600
C11         C  0.48971859  0.73887169  0.26779672     0.84200
N12         N  0.49203276  0.70921868  0.29079760    -0.78300
C13         C  0.21896085  0.77040119  0.31533138     0.81700
N14         N  0.21583585  0.76820537  0.27679677    -0.76600
C15         C  0.18200928  0.73306891  0.26018764     0.84100
N16         N  0.15163517  0.70052171  0.28233317    -0.76600
C17         C  0.15477401  0.70275824  0.32066682     0.84200
N18         N  0.18832350  0.73767561  0.33721360    -0.78300
C19         C  0.22824132  0.78814814  0.09266243     0.81700
N20         N  0.23095418  0.78994620  0.13101410    -0.76600
C21         C  0.19965910  0.75785067  0.15288134     0.84100
N22         N  0.16520520  0.72357211  0.13599090    -0.76600
C23         C  0.16236226  0.72182345  0.09741452     0.84200
N24         N  0.19400221  0.75410854  0.07580236    -0.78300
C25         C  0.15586502  0.44876877  0.09991145     0.81700
N26         N  0.15168891  0.44808025  0.13827581    -0.76600
C27         C  0.18193924  0.44688156  0.16085942     0.84100
N28         N  0.21668464  0.44637899  0.14468129    -0.76600
C29         C  0.22092169  0.44700831  0.10620124     0.84200
N30         N  0.19048135  0.44824181  0.08384745    -0.78300
C31         C  0.16011427  0.44487587  0.32339342     0.81700
N32         N  0.16413661  0.44502788  0.28491463    -0.76600
C33         C  0.19989130  0.44650210  0.26877684     0.84100
N34         N  0.23138563  0.44787535  0.29140370    -0.76600
C35         C  0.22739433  0.44775963  0.32975961     0.84200
N36         N  0.19178782  0.44626004  0.34574859    -0.78300
C37         C  0.75132880  0.24577379  0.32243738     0.81700
N38         N  0.71523604  0.21067977  0.33675032    -0.76600
C39         C  0.68479885  0.18173725  0.31292058     0.84100
N40         N  0.69069640  0.18789400  0.27461294    -0.76600
C41         C  0.72710512  0.22330656  0.26026631     0.84200
N42         N  0.75713682  0.25207452  0.28438990    -0.78300
C43         C  0.75825547  0.25187008  0.09837884     0.81700
N44         N  0.72849310  0.22138799  0.07499647    -0.76600
C45         C  0.69358690  0.18546693  0.08987275     0.84100
N46         N  0.68831999  0.17996010  0.12798822    -0.76600
C47         C  0.71764797  0.21015043  0.15165608     0.84200
N48         N  0.75286499  0.24636193  0.13679463    -0.78300
C49         C  0.69743541  0.52032087  0.10751987     0.81700
N50         N  0.70005514  0.51763615  0.14589981    -0.76600
C51         C  0.73480983  0.51708565  0.16156416     0.84100
N52         N  0.76667946  0.51917759  0.13855281    -0.76600
C53         C  0.76413546  0.52191053  0.10028568     0.84200
N54         N  0.72949270  0.52241514  0.08476365    -0.78300
C55         C  0.68613711  0.50931849  0.33112449     0.81700
N56         N  0.71965106  0.50660293  0.34653371    -0.76600
C57         C  0.75007700  0.50560467  0.32364195     0.84100
N58         N  0.74700684  0.50748305  0.28524456    -0.76600
C59         C  0.71334428  0.51018206  0.26969144     0.84200
N60         N  0.68301915  0.51103421  0.29283149    -0.78300
C61         C  0.41798893  0.18486891  0.32249308     0.81700
N62         N  0.41874713  0.21616346  0.34497888    -0.76600
C63         C  0.42032632  0.25186600  0.32905364     0.84100
N64         N  0.42125691  0.25632890  0.29066727    -0.76600
C65         C  0.42052902  0.22514868  0.26801618     0.84200
N66         N  0.41892587  0.18939451  0.28410434    -0.78300
C67         C  0.43096578  0.18266736  0.10022855     0.81700
N68         N  0.42729094  0.17747221  0.13855999    -0.76600
C69         C  0.42586072  0.20797766  0.16066045     0.84100
N70         N  0.42809546  0.24379379  0.14407098    -0.76600
C71         C  0.43177299  0.24890792  0.10569933     0.84200
N72         N  0.43319852  0.21836273  0.08381801    -0.78300
N73         N  0.47839156  0.55257496  0.40377146    -0.04600
N74         N  0.46922393  0.57470260  0.37886134    -0.56800
N75         N  0.55361590  0.52728302  0.43016228    -0.04300
N76         N  0.59363339  0.53486549  0.42405361    -0.58900
N77         N  0.52730324  0.50162278  0.40380282    -0.03900
N78         N  0.54874967  0.49117280  0.37924387    -0.56700
N79         N  0.50461533  0.57854979  0.43001077    -0.03600
N80         N  0.51384991  0.61903343  0.42347314    -0.59200
C81         C  0.49133601  0.61587574  0.39164284     0.97500
C82         C  0.58984095  0.51193015  0.39237127     0.97300
N83         N  0.52985855  0.50528021  0.04519394    -0.04800
N84         N  0.55189300  0.49582709  0.06989356    -0.57300
N85         N  0.50325157  0.57964140  0.01857821    -0.02900
N86         N  0.51033004  0.61933594  0.02451490    -0.58600
N87         N  0.47707552  0.55258129  0.04498664    -0.04900
N88         N  0.46576682  0.57331404  0.06949833    -0.57600
N89         N  0.55619171  0.53253284  0.01897522     0.01000
N90         N  0.59673302  0.54219406  0.02527700    -0.58700
Mn91       Mn  0.52973716  0.55355135  0.47501836     1.18400
C92         C  0.59339481  0.51898310  0.05700949     0.99600
C93         C  0.48664066  0.61472152  0.05618366     1.00300
N94         N  0.43802294  0.41364304  0.40335140    -0.04900
N95         N  0.44741464  0.39203836  0.37820622    -0.61200
N96         N  0.36216533  0.43793963  0.42994605    -0.03700
N97         N  0.32198798  0.42920701  0.42337133    -0.61900
N98         N  0.38901941  0.46448588  0.40362733    -0.04400
N99         N  0.36773487  0.47441906  0.37857380    -0.61400
N100        N  0.41117091  0.38700642  0.42961281    -0.03300
N101        N  0.40168143  0.34662519  0.42289777    -0.62100
Mn102      Mn  0.45823843  0.48316220  0.40258205     1.10700
C103        C  0.42476449  0.35049750  0.39095366     1.00800
C104        C  0.32619945  0.45244756  0.39147233     1.00900
N105        N  0.38971833  0.46206830  0.04468713    -0.04400
N106        N  0.36682090  0.47074273  0.06926067    -0.59800
N107        N  0.41740836  0.38884259  0.01738707    -0.03700
N108        N  0.41070631  0.34909935  0.02275636    -0.56500
N109        N  0.44272709  0.41498223  0.04399815    -0.05000
N110        N  0.45381510  0.39359795  0.06806476    -0.59300
N111        N  0.36435211  0.43594046  0.01809115    -0.04000
N112        N  0.32364074  0.42631512  0.02401405    -0.56500
Mn113      Mn  0.45978219  0.48367147  0.04590561     1.20200
Mn114      Mn  0.38506496  0.41075075  0.47461565     1.10100
Cl115      Cl  0.45736119  0.48214566  0.47487780    -0.84500
C116        C  0.32582602  0.44832212  0.05591312     0.97800
C117        C  0.43374664  0.35279341  0.05428722     0.97600
N118        N  0.01280315  0.55713331  0.02913228    -0.04600
N119        N  0.04291486  0.57822637  0.05488857    -0.56800
N120        N  0.91416974  0.53644922  0.00208189    -0.04300
N121        N  0.88285141  0.54572872  0.00785169    -0.58900
N122        N  0.91300019  0.50957440  0.02867634    -0.03900
N123        N  0.88094043  0.49999261  0.05304847    -0.56700
N124        N  0.01428739  0.58413260  0.00253194    -0.03600
N125        N  0.04551580  0.62423893  0.00970309    -0.59200
C126        C  0.06310863  0.61985761  0.04225936     0.97500
C127        C  0.86245841  0.52258335  0.03958101     0.97300
N128        N  0.90182052  0.48932167  0.38715383    -0.04800
N129        N  0.87065709  0.47937258  0.36215528    -0.57300
N130        N  0.00102631  0.56659895  0.41359049    -0.02900
N131        N  0.03369982  0.60663295  0.40852316    -0.58600
N132        N  0.00196608  0.54067355  0.38750464    -0.04900
N133        N  0.03527515  0.56243871  0.36406474    -0.57600
N134        N  0.90088308  0.51521573  0.41326555    -0.02600
N135        N  0.86908422  0.52345911  0.40663139    -0.58700
Mn136      Mn  0.95030225  0.54204806  0.45802606     1.18400
C137        C  0.85052125  0.50074231  0.37484334     0.99600
C138        C  0.05463167  0.60327924  0.37770022     1.00300
N139        N  0.91005694  0.41926574  0.03071010    -0.04900
N140        N  0.87952920  0.39814012  0.05684505    -0.61200
N141        N  0.00905796  0.43985268  0.00326344    -0.03700
N142        N  0.04019931  0.43043134  0.00910260    -0.61900
N143        N  0.01004785  0.46680026  0.02930863    -0.04400
N144        N  0.04184321  0.47627092  0.05343408    -0.61400
N145        N  0.90892724  0.39229339  0.00465050    -0.03300
N146        N  0.87757051  0.35218607  0.01255282    -0.62100
Mn147      Mn  0.96148920  0.48821498  0.03044926     1.10700
C148        C  0.85949479  0.35650055  0.04500941     1.00800
C149        C  0.06035260  0.45355691  0.04030381     1.00900
N150        N  0.00398576  0.45327444  0.38784920    -0.04400
N151        N  0.03548462  0.46348739  0.36263653    -0.59800
N152        N  0.90461516  0.37601293  0.41609133    -0.03700
N153        N  0.87174904  0.33604532  0.41202787    -0.56500
N154        N  0.90401957  0.40190797  0.38943399    -0.05000
N155        N  0.87082480  0.38022562  0.36663926    -0.59300
N156        N  0.00491639  0.42764462  0.41459129    -0.04000
N157        N  0.03713805  0.41986159  0.40809461    -0.56500
Mn158      Mn  0.95293780  0.47124915  0.38675939     1.20200
Mn159      Mn  0.95478169  0.40073627  0.46013717     1.10100
Cl160      Cl  0.95249058  0.47138357  0.45909943    -0.84500
C161        C  0.05584874  0.44254937  0.37573099     0.97800
C162        C  0.85113756  0.33946858  0.38120932     0.97600
N163        N  0.48110507  0.93528848  0.02422495    -0.04600
N164        N  0.47044876  0.90363428  0.04928908    -0.56800
N165        N  0.55891241  0.03469780  0.99640740    -0.04300
N166        N  0.59909797  0.06702900  0.00079168    -0.58900
N167        N  0.53310426  0.03528548  0.02315566    -0.03900
N168        N  0.55516430  0.06804346  0.04635863    -0.56700
N169        N  0.50702672  0.93445902  0.99771268    -0.03600
N170        N  0.51456843  0.90209248  0.00422824    -0.59200
C171        C  0.49131655  0.88319424  0.03630763     0.97500
C172        C  0.59603863  0.08744252  0.03188248     0.97300
N173        N  0.51724394  0.02898333  0.37864532    -0.04800
N174        N  0.53851312  0.05997928  0.35295018    -0.57300
N175        N  0.49554182  0.92944440  0.40590890    -0.02900
N176        N  0.50397223  0.89757613  0.40070885    -0.58600
N177        N  0.46898914  0.92884517  0.37965380    -0.04900
N178        N  0.45876762  0.89646931  0.35596233    -0.57600
N179        N  0.54405560  0.02955053  0.40461736    -0.02600
N180        N  0.58421852  0.06102805  0.39711143    -0.58700
Mn181      Mn  0.52107122  0.97937692  0.45006987     1.18400
C182        C  0.58006995  0.07969544  0.36496788     0.99600
C183        C  0.48075609  0.87737031  0.36961087     1.00300
N184        N  0.44582083  0.03744120  0.02480335    -0.04900
N185        N  0.45584946  0.06822446  0.05008492    -0.61200
N186        N  0.36787862  0.93892955  0.99865489    -0.03700
N187        N  0.32733720  0.90751607  0.00429986    -0.61900
N188        N  0.39349858  0.93756688  0.02483953    -0.04400
N189        N  0.37089264  0.90515624  0.04898452    -0.61400
N190        N  0.42011375  0.03882787  0.99872976    -0.03300
N191        N  0.41200352  0.07064053  0.00575996    -0.62100
Mn192      Mn  0.46340780  0.98632758  0.02545227     1.10700
C193        C  0.43480911  0.08870111  0.03764811     1.00800
C194        C  0.32990545  0.88679477  0.03559651     1.00900
N195        N  0.37947651  0.92700921  0.38026944    -0.04400
N196        N  0.35896785  0.89564588  0.35546722    -0.59800
N197        N  0.40039454  0.02578924  0.40709380    -0.03700
N198        N  0.39187843  0.05769321  0.40195500    -0.56500
N199        N  0.42723538  0.02700384  0.38042670    -0.05000
N200        N  0.43750782  0.05974387  0.35658776    -0.59300
N201        N  0.35239472  0.92542046  0.40685542    -0.04000
N202        N  0.31270441  0.89278163  0.40056707    -0.56500
Mn203      Mn  0.44822280  0.97804416  0.37862781     1.20200
Mn204      Mn  0.37489824  0.97506628  0.45206626     1.10100
Cl205      Cl  0.44805809  0.97732049  0.45100883    -0.84500
C206        C  0.31755167  0.87461152  0.36854386     0.97800
C207        C  0.41525745  0.07846312  0.37045839     0.97600
C208        C  0.43432883  0.31691865  0.07252284    -0.11800
C209        C  0.43362473  0.28626089  0.08805044    -0.13400
C210        C  0.43247346  0.15042596  0.07702557    -0.11800
C211        C  0.43363467  0.12285520  0.05813721    -0.13400
C212        C  0.42229450  0.23103917  0.22629060    -0.15000
C213        C  0.42245374  0.20175247  0.20234150    -0.30100
H214        H  0.42414309  0.26053415  0.21512107     0.14100
H215        H  0.42070711  0.17233648  0.21358309     0.14600
C216        C  0.42294705  0.31444361  0.37109565    -0.11800
C217        C  0.42156752  0.28527365  0.35267073    -0.13400
C218        C  0.41675388  0.14723894  0.33930992    -0.11800
C219        C  0.41601650  0.11581521  0.35349518    -0.13400
C220        C  0.65391720  0.51053315  0.35513378    -0.11800
C221        C  0.62551003  0.51143674  0.37337987    -0.13400
C222        C  0.78562011  0.50295446  0.34029648    -0.11800
C223        C  0.81513006  0.50135067  0.35566604    -0.13400
C224        C  0.66049724  0.52022230  0.09073394    -0.11800
C225        C  0.62984146  0.51975169  0.07551593    -0.13400
C226        C  0.70907205  0.51253977  0.22805274    -0.15000
C227        C  0.73872171  0.51406879  0.20318396    -0.30100
H228        H  0.68079591  0.51352396  0.21768150     0.14100
H229        H  0.76714228  0.51337570  0.21357415     0.14600
C230        C  0.82689218  0.52357420  0.05830561    -0.11800
C231        C  0.79780420  0.52336262  0.07639665    -0.13400
C232        C  0.66155074  0.15325145  0.06575924    -0.11800
C233        C  0.63231545  0.12400068  0.04886494    -0.13400
C234        C  0.79502421  0.28992007  0.08197924    -0.11800
C235        C  0.82465421  0.32065172  0.06565460    -0.13400
C236        C  0.64667419  0.14474201  0.32876652    -0.11800
C237        C  0.61595585  0.11486655  0.34478657    -0.13400
C238        C  0.73530851  0.23131103  0.21895205    -0.15000
C239        C  0.70974571  0.20260491  0.19301710    -0.30100
H240        H  0.76366286  0.26156268  0.20973939     0.14100
H241        H  0.68154648  0.17226812  0.20231357     0.14600
C242        C  0.81380290  0.30389431  0.36460979    -0.11800
C243        C  0.78397210  0.27612394  0.34716474    -0.13400
C244        C  0.29033208  0.45099815  0.37162417    -0.11800
C245        C  0.26107040  0.44949476  0.35327362    -0.13400
C246        C  0.12268575  0.44368878  0.34072787    -0.11800
C247        C  0.09207851  0.44304947  0.35659842    -0.13400
C248        C  0.17629807  0.44632058  0.20259425    -0.15000
C249        C  0.20542982  0.44675997  0.22704429    -0.30100
H250        H  0.14729226  0.44581297  0.21341651     0.14100
H251        H  0.23457047  0.44753838  0.21622742     0.14600
C252        C  0.28879505  0.44738650  0.07396251    -0.11800
C253        C  0.25784896  0.44694372  0.08900891    -0.13400
C254        C  0.12366266  0.45042546  0.07658299    -0.11800
C255        C  0.09537980  0.45192546  0.05898670    -0.13400
C256        C  0.09751455  0.65556236  0.06238507    -0.11800
C257        C  0.12656024  0.68550090  0.07914245    -0.13400
C258        C  0.26253648  0.82174286  0.07026726    -0.11800
C259        C  0.29299985  0.85096904  0.05367648    -0.13400
C260        C  0.12163348  0.66872375  0.34343991    -0.11800
C261        C  0.09179398  0.63920849  0.36025038    -0.13400
C262        C  0.17690207  0.72963374  0.21851083    -0.15000
C263        C  0.20450642  0.76101390  0.19456864    -0.30100
H264        H  0.14939115  0.70042698  0.20732525     0.14100
H265        H  0.23209315  0.79013059  0.20579040     0.14600
C266        C  0.25400408  0.80757056  0.33328845    -0.11800
C267        C  0.28271696  0.83816135  0.34962544    -0.13400
C268        C  0.49281778  0.68071275  0.35319077    -0.11800
C269        C  0.49279894  0.65215121  0.37195377    -0.13400
C270        C  0.48275545  0.81099238  0.33825781    -0.11800
C271        C  0.48101761  0.84097489  0.35233071    -0.13400
C272        C  0.48580652  0.68086809  0.08919508    -0.11800
C273        C  0.48554812  0.65019185  0.07444238    -0.13400
C274        C  0.49033719  0.81862866  0.07480863    -0.11800
C275        C  0.49106147  0.84755147  0.05606870    -0.13400
C276        C  0.48822408  0.76239176  0.20168996    -0.15000
C277        C  0.48996367  0.73400481  0.22612259    -0.30100
H278        H  0.48704333  0.79040056  0.21245631     0.14100
H279        H  0.49156304  0.70621778  0.21536051     0.14600
C280        C  0.48701963  0.71789681  0.60421684     0.81700
N281        N  0.48660079  0.74845500  0.58111328    -0.76600
C282        C  0.48709514  0.78372338  0.59631209     0.84100
N283        N  0.48796544  0.78842000  0.63458376    -0.76600
C284        C  0.48844736  0.75801701  0.65787509     0.84200
N285        N  0.48797031  0.72267339  0.64252807    -0.78300
C286        C  0.49123815  0.71440093  0.82727974     0.81700
N287        N  0.49138638  0.74936250  0.84274988    -0.76600
C288        C  0.49118626  0.78022448  0.81992510     0.84100
N289        N  0.49081357  0.77607561  0.78153900    -0.76600
C290        C  0.49066617  0.74099853  0.76591093     0.84200
N291        N  0.49086472  0.71026520  0.78896704    -0.78300
C292        C  0.23123859  0.78780531  0.81858208     0.81700
N293        N  0.23429952  0.78987624  0.78016021    -0.76600
C294        C  0.20319750  0.75783947  0.75891605     0.84100
N295        N  0.16872298  0.72338766  0.77653792    -0.76600
C296        C  0.16567863  0.72135211  0.81515390     0.84200
N297        N  0.19699107  0.75360563  0.83610823    -0.78300
C298        C  0.21669207  0.77287250  0.59527499     0.81700
N299        N  0.21527117  0.77037028  0.63394685    -0.76600
C300        C  0.18198222  0.73525197  0.65203111     0.84100
N301        N  0.15048526  0.70301268  0.63124080    -0.76600
C302        C  0.15185668  0.70547585  0.59280745     0.84200
N303        N  0.18491029  0.74037343  0.57478499    -0.78300
C304        C  0.15242450  0.44468517  0.60353542     0.81700
N305        N  0.14826594  0.44339796  0.64191628    -0.76600
C306        C  0.17967998  0.44404656  0.66415663     0.84100
N307        N  0.21546798  0.44606258  0.64766360    -0.76600
C308        C  0.21960179  0.44739663  0.60920849     0.84200
N309        N  0.18807833  0.44671703  0.58716625    -0.78300
C310        C  0.16213876  0.44689358  0.82615574     0.81700
N311        N  0.16510392  0.44531616  0.78776681    -0.76600
C312        C  0.19987526  0.44510881  0.77143207     0.84100
N313        N  0.23160068  0.44658250  0.79376507    -0.76600
C314        C  0.22875520  0.44818198  0.83210374     0.84200
N315        N  0.19403356  0.44838228  0.84834994    -0.78300
C316        C  0.76267001  0.25705674  0.81770704     0.81700
N317        N  0.72920611  0.22255413  0.83573561    -0.76600
C318        C  0.69801402  0.18961377  0.81524936     0.84100
N319        N  0.70024871  0.19122757  0.77667373    -0.76600
C320        C  0.73383075  0.22580606  0.75849473     0.84200
N321        N  0.76498412  0.25862631  0.77919233    -0.78300
C322        C  0.74806239  0.23752656  0.59589684     0.81700
N323        N  0.71541558  0.20671603  0.57490635    -0.76600
C324        C  0.68016161  0.17354779  0.59242357     0.84100
N325        N  0.67753261  0.17113589  0.63093712    -0.76600
C326        C  0.71009978  0.20191242  0.65211814     0.84200
N327        N  0.74540046  0.23518311  0.63442340    -0.78300
C328        C  0.69040097  0.50949980  0.60935277     0.81700
N329        N  0.69700356  0.51351233  0.64751050    -0.76600
C330        C  0.73206807  0.51307366  0.66263304     0.84100
N331        N  0.76017523  0.50860464  0.63936758    -0.76600
C332        C  0.75355668  0.50455988  0.60138169     0.84200
N333        N  0.71874639  0.50507752  0.58634330    -0.78300
C334        C  0.69651091  0.52582151  0.83210344     0.81700
N335        N  0.73195769  0.52656809  0.84718275    -0.76600
C336        C  0.76233890  0.52588598  0.82399030     0.84100
N337        N  0.75701831  0.52416755  0.78565360    -0.76600
C338        C  0.72137137  0.52340965  0.77052027     0.84200
N339        N  0.69131784  0.52424035  0.79394368    -0.78300
C340        C  0.43369565  0.19314897  0.82029221     0.81700
N341        N  0.43370265  0.22448869  0.84214147    -0.76600
C342        C  0.43147675  0.25794890  0.82565071     0.84100
N343        N  0.42922981  0.26003077  0.78722768    -0.76600
C344        C  0.42902602  0.22858340  0.76520598     0.84200
N345        N  0.43129175  0.19513317  0.78193026    -0.78300
C346        C  0.41579236  0.17288912  0.59773011     0.81700
N347        N  0.41734764  0.17015594  0.63618654    -0.76600
C348        C  0.42109520  0.20312067  0.65830694     0.84100
N349        N  0.42340139  0.23888386  0.64164319    -0.76600
C350        C  0.42197089  0.24173528  0.60329089     0.84200
N351        N  0.41819179  0.20875617  0.58130718    -0.78300
N352        N  0.47976985  0.55480195  0.90235658    -0.04600
N353        N  0.46965760  0.57601816  0.87725949    -0.56800
N354        N  0.55764277  0.53389601  0.92946480    -0.04300
N355        N  0.59840266  0.54367513  0.92390270    -0.58900
N356        N  0.53244825  0.50758505  0.90288857    -0.03900
N357        N  0.55555685  0.49889757  0.87862584    -0.56700
N358        N  0.50500296  0.58128325  0.92880999    -0.03600
N359        N  0.51264266  0.62122619  0.92221051    -0.59200
C360        C  0.49013282  0.61717498  0.89017154     0.97500
C361        C  0.59638621  0.52142868  0.89229709     0.97300
N362        N  0.52553574  0.49988686  0.54648648    -0.04800
N363        N  0.54654385  0.48941526  0.57141551    -0.57300
N364        N  0.50306902  0.57714785  0.51968584    -0.02900
N365        N  0.51103523  0.61725368  0.52509364    -0.58600
N366        N  0.47622862  0.55072317  0.54609860    -0.04900
N367        N  0.46535305  0.57231124  0.57005756    -0.57600
N368        N  0.55249412  0.52632278  0.52015439     0.01000
N369        N  0.59250468  0.53440905  0.52664404    -0.58700
Mn370      Mn  0.53164603  0.55804939  0.97395606     1.18400
C371        C  0.58810119  0.51106398  0.55856973     0.99600
C372        C  0.48725470  0.61359350  0.55647475     1.00300
N373        N  0.44491218  0.41741788  0.90176832    -0.04900
N374        N  0.45523633  0.39680898  0.87632841    -0.61200
N375        N  0.36614017  0.43802200  0.92837568    -0.03700
N376        N  0.32577101  0.42913295  0.92259459    -0.61900
N377        N  0.39248020  0.46505574  0.90203851    -0.04400
N378        N  0.37059643  0.47516906  0.87776063    -0.61400
N379        N  0.41835684  0.39002762  0.92778980    -0.03300
N380        N  0.41003517  0.35008501  0.92056204    -0.62100
Mn381      Mn  0.46247169  0.48621104  0.90114793     1.10700
C382        C  0.43351960  0.35505238  0.88858700     1.00800
C383        C  0.32924057  0.45270480  0.89112146     1.00900
N384        N  0.38720752  0.46235324  0.54599581    -0.04400
N385        N  0.36540574  0.47238039  0.57057090    -0.59800
N386        N  0.41053301  0.38593333  0.51903978    -0.03700
N387        N  0.40266645  0.34572192  0.52391126    -0.56500
N388        N  0.43650638  0.41139109  0.54566880    -0.05000
N389        N  0.44686530  0.38896560  0.56928906    -0.59300
N390        N  0.36115266  0.43670435  0.51951896    -0.04000
N391        N  0.32101084  0.42870072  0.52550529    -0.56500
Mn392      Mn  0.45632472  0.48104293  0.54728947     1.20200
Mn393      Mn  0.39037993  0.41198680  0.97294029     1.10100
Cl394      Cl  0.46106924  0.48497858  0.97349147    -0.84500
C395        C  0.32437988  0.45130394  0.55726871     0.97800
C396        C  0.42558752  0.34824832  0.55519189     0.97600
N397        N  0.00056928  0.54133207  0.52931349    -0.04600
N398        N  0.03285661  0.56361173  0.55292192    -0.56800
N399        N  0.89978554  0.51467408  0.50270289    -0.04300
N400        N  0.86694826  0.52167475  0.50819615    -0.58900
N401        N  0.90040502  0.48898218  0.52954173    -0.03900
N402        N  0.86799570  0.47792072  0.55389649    -0.56700
N403        N  0.99994215  0.56703058  0.50251147    -0.03600
N404        N  0.03180252  0.60738018  0.50724096    -0.59200
C405        C  0.05194922  0.60454394  0.53863748     0.97500
C406        C  0.84741004  0.49828751  0.53998686     0.97300
N407        N  0.91475127  0.51037590  0.88609642    -0.04800
N408        N  0.88369449  0.50163191  0.86130589    -0.57300
N409        N  0.01559184  0.58394537  0.91201958    -0.02900
N410        N  0.04741725  0.62392703  0.90448103    -0.58600
N411        N  0.01458611  0.55693004  0.88600405    -0.04900
N412        N  0.04564214  0.57791228  0.86030214    -0.57600
N413        N  0.91551509  0.53721218  0.91213429    -0.02600
N414        N  0.88494123  0.54729829  0.90558416    -0.58700
Mn415      Mn  0.96503006  0.56166788  0.95718681     1.18400
C416        C  0.86544265  0.52478706  0.87390560     0.99600
C417        C  0.06587776  0.61945461  0.87234250     1.00300
N418        N  0.90342676  0.40192604  0.53130346    -0.04900
N419        N  0.87134946  0.37987734  0.55587219    -0.61200
N420        N  0.00449109  0.42835213  0.50458684    -0.03700
N421        N  0.03681901  0.42089311  0.51110478    -0.61900
N422        N  0.00319258  0.45413012  0.53066527    -0.04400
N423        N  0.03457589  0.46480393  0.55546845    -0.61400
N424        N  0.90446402  0.37586431  0.50540181    -0.03300
N425        N  0.87301560  0.33542990  0.51178310    -0.62100
Mn426      Mn  0.95187667  0.47163371  0.53142502     1.10700
C427        C  0.85277261  0.33864121  0.54323968     1.00800
C428        C  0.05524697  0.44406549  0.54270966     1.00900
N429        N  0.01048938  0.46570663  0.88691907    -0.04400
N430        N  0.04194765  0.47399762  0.86215074    -0.59800
N431        N  0.90903243  0.39269305  0.91446974    -0.03700
N432        N  0.87666449  0.35290531  0.90837809    -0.56500
N433        N  0.91060444  0.41956060  0.88768562    -0.05000
N434        N  0.87934126  0.39866638  0.86285034    -0.59300
N435        N  0.00893884  0.43883617  0.91366578    -0.04000
N436        N  0.03932615  0.42832392  0.90771289    -0.56500
Mn437      Mn  0.96267909  0.48816292  0.88562703     1.20200
Mn438      Mn  0.95884301  0.41474710  0.95900460     1.10100
Cl439      Cl  0.96206175  0.48824724  0.95805300    -0.84500
C440        C  0.05958734  0.45056312  0.87563016     0.97800
C441        C  0.85842900  0.35736938  0.87632593     0.97600
N442        N  0.46932732  0.92826891  0.52190298    -0.04600
N443        N  0.46044831  0.89701135  0.54695664    -0.56800
N444        N  0.54389847  0.02898749  0.49454157    -0.04300
N445        N  0.58401921  0.06061889  0.50077184    -0.58900
N446        N  0.51723500  0.02800784  0.52123648    -0.03900
N447        N  0.53861736  0.05896456  0.54619273    -0.56700
N448        N  0.49606974  0.92912317  0.49535927    -0.03600
N449        N  0.50597066  0.89836758  0.50181129    -0.59200
C450        C  0.48327672  0.87861824  0.53389269     0.97500
C451        C  0.57997487  0.07905685  0.53284762     0.97300
N452        N  0.53312158  0.03581947  0.88102439    -0.04800
N453        N  0.55511747  0.06794797  0.85649905    -0.57300
N454        N  0.50711690  0.93489770  0.90784969    -0.02900
N455        N  0.51476953  0.90263703  0.90168372    -0.58600
N456        N  0.48121052  0.93577725  0.88167628    -0.04900
N457        N  0.47065069  0.90410336  0.85713534    -0.57600
N458        N  0.55914833  0.03508857  0.90713561    -0.02600
N459        N  0.59951260  0.06680484  0.90094395    -0.58700
Mn460      Mn  0.53426666  0.98467582  0.95230699     1.18400
C461        C  0.59628568  0.08689858  0.86938932     0.99600
C462        C  0.49170135  0.88377477  0.87011894     1.00300
N463        N  0.42715624  0.02543727  0.52275741    -0.04900
N464        N  0.43638080  0.05633560  0.54776214    -0.61200
N465        N  0.35209482  0.92467329  0.49755576    -0.03700
N466        N  0.31204863  0.89299456  0.50531930    -0.61900
N467        N  0.37917815  0.92563788  0.52347114    -0.04400
N468        N  0.35823787  0.89472148  0.54929628    -0.61400
N469        N  0.40015957  0.02501028  0.49703645    -0.03300
N470        N  0.39046727  0.05580252  0.50407467    -0.62100
Mn471      Mn  0.44823724  0.97683406  0.52328846     1.10700
C472        C  0.41348716  0.07502655  0.53566897     1.00800
C473        C  0.31658470  0.87459781  0.53751147     1.00900
N474        N  0.39384669  0.93853783  0.88318837    -0.04400
N475        N  0.37157961  0.90610405  0.85976328    -0.59800
N476        N  0.42040741  0.03941079  0.90905902    -0.03700
N477        N  0.41328842  0.07211329  0.90334209    -0.56500
N478        N  0.44596175  0.03856338  0.88219375    -0.05000
N479        N  0.45683603  0.07074406  0.85759516    -0.59300
N480        N  0.36811019  0.93946965  0.90981477    -0.04000
N481        N  0.32773934  0.90764675  0.90515468    -0.56500
Mn482      Mn  0.46347480  0.98713521  0.88078197     1.20200
Mn483      Mn  0.39300988  0.98932716  0.95401839     1.10100
Cl484      Cl  0.46353301  0.98682155  0.95313664    -0.84500
C485        C  0.33064592  0.88724753  0.87398951     0.97800
C486        C  0.43634838  0.09130203  0.87133894     0.97600
C487        C  0.42580315  0.31145782  0.57212328    -0.11800
C488        C  0.42448511  0.27971824  0.58610993    -0.13400
C489        C  0.41301806  0.13844922  0.57437820    -0.11800
C490        C  0.41226313  0.10968471  0.55563244    -0.13400
C491        C  0.42646557  0.23133877  0.72344709    -0.15000
C492        C  0.42329246  0.19997580  0.70008864    -0.30100
H493        H  0.42698751  0.25998450  0.71171208     0.14100
H494        H  0.42232351  0.17111659  0.71182654     0.14600
C495        C  0.43245737  0.31977199  0.86786825    -0.11800
C496        C  0.43180657  0.29126660  0.84888010    -0.13400
C497        C  0.43586955  0.15773540  0.83782575    -0.11800
C498        C  0.43684405  0.12771200  0.85297214    -0.13400
C499        C  0.66352811  0.52521564  0.85621345    -0.11800
C500        C  0.63360123  0.52367106  0.87387620    -0.13400
C501        C  0.79953953  0.52609867  0.84031695    -0.11800
C502        C  0.82986134  0.52577188  0.85541506    -0.13400
C503        C  0.65370786  0.51014185  0.59296315    -0.11800
C504        C  0.62364996  0.51056564  0.57749775    -0.13400
C505        C  0.71383471  0.52071684  0.72911481    -0.15000
C506        C  0.74043898  0.51722855  0.70392253    -0.30100
H507        H  0.68493208  0.52081885  0.71923325     0.14100
H508        H  0.76918602  0.51683162  0.71381924     0.14600
C509        C  0.81187254  0.49874017  0.55907089    -0.11800
C510        C  0.78406387  0.50067249  0.57727033    -0.13400
C511        C  0.64553076  0.14110963  0.57026444    -0.11800
C512        C  0.61591629  0.11332319  0.55245727    -0.13400
C513        C  0.78522325  0.27272374  0.57728652    -0.11800
C514        C  0.81613260  0.30249426  0.56151010    -0.13400
C515        C  0.66247555  0.15334384  0.83447757    -0.11800
C516        C  0.63252016  0.12311903  0.85077369    -0.13400
C517        C  0.73708963  0.22860059  0.71660161    -0.15000
C518        C  0.70657816  0.19861833  0.69401548    -0.30100
H519        H  0.76545419  0.25652637  0.70406055     0.14100
H520        H  0.67800485  0.17086291  0.70649812     0.14600
C521        C  0.82364805  0.32174105  0.85680695    -0.11800
C522        C  0.79550257  0.29204615  0.83931672    -0.13400
C523        C  0.29284664  0.45165634  0.87248176    -0.11800
C524        C  0.26292347  0.45016341  0.85515762    -0.13400
C525        C  0.12566595  0.44780768  0.84323245    -0.11800
C526        C  0.09538001  0.44902469  0.85777746    -0.13400
C527        C  0.17452905  0.44327910  0.70585231    -0.15000
C528        C  0.20435346  0.44426760  0.72975707    -0.30100
H529        H  0.14550883  0.44242403  0.71709052     0.14100
H530        H  0.23335303  0.44506766  0.71853254     0.14600
C531        C  0.28812499  0.45080765  0.57600073    -0.11800
C532        C  0.25720520  0.44952047  0.59166434    -0.13400
C533        C  0.11923219  0.44429029  0.58037977    -0.11800
C534        C  0.09055800  0.44415977  0.56222055    -0.13400
C535        C  0.08834241  0.64100558  0.55571207    -0.11800
C536        C  0.11803762  0.67104907  0.57153450    -0.13400
C537        C  0.25189396  0.80951511  0.57571275    -0.11800
C538        C  0.28110939  0.83928549  0.55810537    -0.13400
C539        C  0.12981447  0.68499565  0.83419236    -0.11800
C540        C  0.10066784  0.65511104  0.85164671    -0.13400
C541        C  0.20763450  0.76158361  0.71705196    -0.15000
C542        C  0.17861402  0.73123993  0.69391031    -0.30100
H543        H  0.23548893  0.79043302  0.70502982     0.14100
H544        H  0.15083527  0.70237085  0.70599786     0.14600
C545        C  0.26467526  0.82165707  0.84044402    -0.11800
C546        C  0.29424589  0.85112771  0.85679303    -0.13400
C547        C  0.49107943  0.68151270  0.85133529    -0.11800
C548        C  0.49071955  0.65284026  0.87017324    -0.13400
C549        C  0.49110548  0.81703803  0.83659173    -0.11800
C550        C  0.49112586  0.84749008  0.85165944    -0.13400
C551        C  0.48648830  0.68057410  0.58804877    -0.11800
C552        C  0.48641584  0.64967638  0.57388441    -0.13400
C553        C  0.48636649  0.81602400  0.57209121    -0.11800
C554        C  0.48528866  0.84409148  0.55347806    -0.13400
C555        C  0.48936115  0.76399221  0.69947751    -0.15000
C556        C  0.49002170  0.73536649  0.72428191    -0.30100
H557        H  0.48942445  0.79277297  0.70987271     0.14100
H558        H  0.48995287  0.70659538  0.71385107     0.14600
loop_ 
_geom_bond_atom_site_label_1 
_geom_bond_atom_site_label_2 
_geom_bond_distance 
_geom_bond_site_symmetry_2 
_ccdc_geom_bond_type 
C1            N2   1.357       .  A
C1            N6   1.358       .  A
C1          C272   1.434       .  S
N2            C3   1.356       .  A
C3            N4   1.357       .  A
C3          C274   1.435       .  S
N4            C5   1.358       .  A
C5            N6   1.360       .  A
C5          C276   1.478       .  S
C7            N8   1.356       .  A
C7           N12   1.357       .  A
C7          C268   1.435       .  S
N8            C9   1.357       .  A
C9           N10   1.357       .  A
C9          C270   1.435       .  S
N10          C11   1.360       .  A
C11          N12   1.358       .  A
C11         C277   1.478       .  S
C13          N14   1.361       .  A
C13          N18   1.356       .  A
C13         C266   1.437       .  S
N14          C15   1.363       .  A
C15          N16   1.355       .  A
C15         C262   1.477       .  S
N16          C17   1.354       .  A
C17          N18   1.355       .  A
C17         C260   1.428       .  S
C19          N20   1.353       .  A
C19          N24   1.356       .  A
C19         C258   1.431       .  S
N20          C21   1.355       .  A
C21          N22   1.364       .  A
C21         C263   1.476       .  S
N22          C23   1.361       .  A
C23          N24   1.357       .  A
C23         C257   1.440       .  S
C25          N26   1.356       .  A
C25          N30   1.357       .  A
C25         C254   1.436       .  S
N26          C27   1.357       .  A
C27          N28   1.362       .  A
C27         C248   1.479       .  S
N28          C29   1.360       .  A
C29          N30   1.358       .  A
C29         C253   1.440       .  S
C31          N32   1.360       .  A
C31          N36   1.357       .  A
C31         C246   1.439       .  S
N32          C33   1.363       .  A
C33          N34   1.357       .  A
C33         C249   1.479       .  S
N34          C35   1.356       .  A
C35          N36   1.356       .  A
C35         C245   1.434       .  S
C37          N38   1.354       .  A
C37          N42   1.353       .  A
C37         C243   1.427       .  S
N38          C39   1.356       .  A
C39          N40   1.362       .  A
C39         C236   1.438       .  S
N40          C41   1.365       .  A
C41          N42   1.354       .  A
C41         C238   1.478       .  S
C43          N44   1.358       .  A
C43          N48   1.363       .  A
C43         C234   1.441       .  S
N44          C45   1.355       .  A
C45          N46   1.352       .  A
C45         C232   1.430       .  S
N46          C47   1.354       .  A
C47          N48   1.365       .  A
C47         C239   1.477       .  S
C49          N50   1.360       .  A
C49          N54   1.357       .  A
C49         C224   1.439       .  S
N50          C51   1.363       .  A
C51          N52   1.357       .  A
C51         C227   1.480       .  S
N52          C53   1.356       .  A
C53          N54   1.356       .  A
C53         C231   1.435       .  S
C55          N56   1.356       .  A
C55          N60   1.356       .  A
C55         C220   1.435       .  S
N56          C57   1.357       .  A
C57          N58   1.360       .  A
C57         C222   1.439       .  S
N58          C59   1.363       .  A
C59          N60   1.357       .  A
C59         C226   1.480       .  S
C61          N62   1.357       .  A
C61          N66   1.357       .  A
C61         C218   1.437       .  S
N62          C63   1.357       .  A
C63          N64   1.357       .  A
C63         C217   1.435       .  S
N64          C65   1.358       .  A
C65          N66   1.361       .  A
C65         C212   1.478       .  S
C67          N68   1.357       .  A
C67          N72   1.354       .  A
C67         C210   1.432       .  S
N68          C69   1.358       .  A
C69          N70   1.361       .  A
C69         C213   1.477       .  S
N70          C71   1.358       .  A
C71          N72   1.355       .  A
C71         C209   1.431       .  S
N73          N74   1.319       .  A
N73          N79   1.316       .  A
N73        Mn102   2.196       .  S
N74          C81   1.349       .  A
N75          N77   1.317       .  A
N75          N76   1.322       .  A
N75         Mn91   2.206       .  S
N76          C82   1.352       .  A
N77          N78   1.319       .  A
N77        Mn102   2.198       .  S
N78          C82   1.349       .  A
N79          N80   1.322       .  A
N79         Mn91   2.209       .  S
N80          C81   1.352       .  A
C81         C269   1.435       .  S
C82         C221   1.435       .  S
N83          N89   1.316       .  A
N83          N84   1.321       .  A
N83        Mn113   2.205       .  S
N84          C92   1.351       .  A
N85          N86   1.320       .  A
N85          N87   1.316       .  A
N85        Mn370   2.198   1_554  S
N86          C93   1.350       .  A
N87          N88   1.321       .  A
N87        Mn113   2.204       .  S
N88          C93   1.351       .  A
N89          N90   1.322       .  A
N89        Mn370   2.208   1_554  S
N90          C92   1.352       .  A
Mn91        N364   2.204       .  S
Mn91        N368   2.210       .  S
Mn91       Cl115   2.551       .  S
C92         C225   1.440       .  S
C93         C273   1.434       .  S
N94          N95   1.320       .  A
N94         N100   1.316       .  A
N94        Mn102   2.198       .  S
N95         C103   1.350       .  A
N96          N98   1.316       .  A
N96          N97   1.321       .  A
N96        Mn114   2.200       .  S
N97         C104   1.351       .  A
N98          N99   1.320       .  A
N98        Mn102   2.200       .  S
N99         C104   1.350       .  A
N100        N101   1.321       .  A
N100       Mn114   2.203       .  S
N101        C103   1.351       .  A
Mn102      Cl115   2.543       .  S
C103        C216   1.435       .  S
C104        C244   1.434       .  S
N105        N106   1.321       .  A
N105        N111   1.317       .  A
N105       Mn113   2.205       .  S
N106        C116   1.351       .  A
N107        N108   1.320       .  A
N107        N109   1.317       .  A
N107       Mn393   2.198   1_554  S
N108        C117   1.350       .  A
N109        N110   1.320       .  A
N109       Mn113   2.200       .  S
N110        C117   1.350       .  A
N111        N112   1.322       .  A
N111       Mn393   2.209   1_554  S
N112        C116   1.352       .  A
Mn113      Cl394   2.548   1_554  S
Mn114       N386   2.198       .  S
Mn114       N390   2.201       .  S
Mn114      Cl115   2.550       .  S
Cl115      Mn392   2.548       .  S
C116        C252   1.441       .  S
C117        C208   1.431       .  S
N118        N119   1.321       .  A
N118        N124   1.317       .  A
N118       Mn147   2.201   1_455  S
N119        C126   1.350       .  A
N120        N122   1.317       .  A
N120        N121   1.322       .  A
N120       Mn415   2.209   1_554  S
N121        C127   1.352       .  A
N122        N123   1.319       .  A
N122       Mn147   2.200       .  S
N123        C127   1.350       .  A
N124        N125   1.322       .  A
N124       Mn415   2.212   1_454  S
N125        C126   1.353       .  A
C126        C256   1.440       .  S
C127        C230   1.436       .  S
N128        N134   1.316       .  A
N128        N129   1.322       .  A
N128       Mn158   2.205       .  S
N129        C137   1.351       .  A
N130        N131   1.320       .  A
N130        N132   1.316       .  A
N130       Mn136   2.195   1_455  S
N131        C138   1.349       .  A
N132        N133   1.319       .  A
N132       Mn158   2.194   1_455  S
N133        C138   1.349       .  A
N134        N135   1.321       .  A
N134       Mn136   2.202       .  S
N135        C137   1.351       .  A
Mn136       N399   2.197       .  S
Mn136       N403   2.198       .  S
Mn136      Cl160   2.547       .  S
C137        C223   1.439       .  S
C138        C261   1.428       .  S
N139        N140   1.322       .  A
N139        N145   1.316       .  A
N139       Mn147   2.203       .  S
N140        C148   1.351       .  A
N141        N143   1.317       .  A
N141        N142   1.321       .  A
N141       Mn438   2.204   1_454  S
N142        C149   1.351       .  A
N143        N144   1.320       .  A
N143       Mn147   2.203   1_455  S
N144        C149   1.351       .  A
N145        N146   1.322       .  A
N145       Mn438   2.210   1_554  S
N146        C148   1.353       .  A
Mn147      Cl439   2.547   1_554  S
C148        C235   1.441       .  S
C149        C255   1.436       .  S
N150        N151   1.321       .  A
N150        N156   1.316       .  A
N150       Mn158   2.201   1_455  S
N151        C161   1.350       .  A
N152        N153   1.320       .  A
N152        N154   1.316       .  A
N152       Mn159   2.198       .  S
N153        C162   1.350       .  A
N154        N155   1.318       .  A
N154       Mn158   2.191       .  S
N155        C162   1.348       .  A
N156        N157   1.322       .  A
N156       Mn159   2.211   1_455  S
N157        C161   1.352       .  A
Mn158      Cl160   2.545       .  S
Mn159       N420   2.201   1_655  S
Mn159       N424   2.207       .  S
Mn159      Cl160   2.549       .  S
Cl160      Mn426   2.545       .  S
C161        C247   1.439       .  S
C162        C242   1.427       .  S
N163        N164   1.319       .  A
N163        N169   1.316   1_554  A
N163       Mn192   2.194       .  S
N164        C171   1.349       .  A
N165        N167   1.316   1_556  A
N165        N166   1.320   1_556  A
N165       Mn460   2.197   1_545  S
N166        C172   1.349       .  A
N167        N168   1.320       .  A
N167       Mn192   2.200   1_545  S
N168        C172   1.350       .  A
N169        N170   1.322   1_556  A
N169       Mn460   2.210       .  S
N170        C171   1.352       .  A
C171        C275   1.435       .  S
C172        C233   1.431       .  S
N173        N179   1.316       .  A
N173        N174   1.321       .  A
N173       Mn203   2.199   1_545  S
N174        C182   1.350       .  A
N175        N176   1.320       .  A
N175        N177   1.316       .  A
N175       Mn181   2.197       .  S
N176        C183   1.350       .  A
N177        N178   1.322       .  A
N177       Mn203   2.208       .  S
N178        C183   1.352       .  A
N179        N180   1.322       .  A
N179       Mn181   2.210   1_545  S
N180        C182   1.352       .  A
Mn181       N444   2.198   1_565  S
Mn181       N448   2.207       .  S
Mn181      Cl205   2.554       .  S
C182        C237   1.439       .  S
C183        C271   1.435       .  S
N184        N185   1.319       .  A
N184        N190   1.316   1_554  A
N184       Mn192   2.193   1_545  S
N185        C193   1.349       .  A
N186        N188   1.316   1_556  A
N186        N187   1.319   1_556  A
N186       Mn483   2.193       .  S
N187        C194   1.349       .  A
N188        N189   1.320       .  A
N188       Mn192   2.204       .  S
N189        C194   1.351       .  A
N190        N191   1.321   1_556  A
N190       Mn483   2.203   1_545  S
N191        C193   1.352       .  A
Mn192      Cl484   2.544   1_554  S
C193        C211   1.432       .  S
C194        C259   1.432       .  S
N195        N196   1.320       .  A
N195        N201   1.317       .  A
N195       Mn203   2.194       .  S
N196        C206   1.348       .  A
N197        N198   1.321       .  A
N197        N199   1.317       .  A
N197       Mn204   2.209   1_545  S
N198        C207   1.351       .  A
N199        N200   1.321       .  A
N199       Mn203   2.207   1_545  S
N200        C207   1.351       .  A
N201        N202   1.323       .  A
N201       Mn204   2.218       .  S
N202        C206   1.354       .  A
Mn203      Cl205   2.547       .  S
Mn204       N465   2.216       .  S
Mn204       N469   2.217   1_565  S
Mn204      Cl205   2.556       .  S
Cl205      Mn471   2.543       .  S
C206        C267   1.438       .  S
C207        C219   1.438       .  S
C208        C209   1.203       .  T
C210        C211   1.204       .  T
C212        C213   1.344       .  D
C212        H214   1.086       .  S
C213        H215   1.086       .  S
C216        C217   1.205       .  T
C218        C219   1.207       .  T
C220        C221   1.205       .  T
C222        C223   1.207       .  T
C224        C225   1.208       .  T
C226        C227   1.343       .  D
C226        H228   1.086       .  S
C227        H229   1.086       .  S
C230        C231   1.206       .  T
C232        C233   1.203       .  T
C234        C235   1.209       .  T
C236        C237   1.208       .  T
C238        C239   1.339       .  D
C238        H240   1.087       .  S
C239        H241   1.087       .  S
C242        C243   1.201       .  T
C244        C245   1.205       .  T
C246        C247   1.208       .  T
C248        C249   1.343       .  D
C248        H250   1.086       .  S
C249        H251   1.086       .  S
C252        C253   1.209       .  T
C254        C255   1.206       .  T
C256        C257   1.208       .  T
C258        C259   1.203       .  T
C260        C261   1.201       .  T
C262        C263   1.340       .  D
C262        H264   1.087       .  S
C263        H265   1.087       .  S
C266        C267   1.207       .  T
C268        C269   1.206       .  T
C270        C271   1.205       .  T
C272        C273   1.205       .  T
C274        C275   1.206       .  T
C276        C277   1.345       .  D
C276        H278   1.086       .  S
C277        H279   1.086       .  S
C280        N281   1.357       .  A
C280        N285   1.358       .  A
C280        C551   1.436       .  S
N281        C282   1.356       .  A
C282        N283   1.357       .  A
C282        C553   1.434       .  S
N283        C284   1.357       .  A
C284        N285   1.361       .  A
C284        C555   1.479       .  S
C286        N287   1.356       .  A
C286        N291   1.356       .  A
C286        C547   1.435       .  S
N287        C288   1.357       .  A
C288        N289   1.359       .  A
C288        C549   1.437       .  S
N289        C290   1.362       .  A
C290        N291   1.358       .  A
C290        C556   1.478       .  S
C292        N293   1.354       .  A
C292        N297   1.355       .  A
C292        C545   1.429       .  S
N293        C294   1.355       .  A
C294        N295   1.364       .  A
C294        C541   1.478       .  S
N295        C296   1.361       .  A
C296        N297   1.356       .  A
C296        C539   1.438       .  S
C298        N299   1.362       .  A
C298        N303   1.357       .  A
C298        C537   1.441       .  S
N299        C300   1.364       .  A
C300        N301   1.355       .  A
C300        C542   1.478       .  S
N301        C302   1.353       .  A
C302        N303   1.356       .  A
C302        C536   1.432       .  S
C304        N305   1.355       .  A
C304        N309   1.355       .  A
C304        C533   1.431       .  S
N305        C306   1.357       .  A
C306        N307   1.361       .  A
C306        C527   1.476       .  S
N307        C308   1.358       .  A
C308        N309   1.355       .  A
C308        C532   1.433       .  S
C310        N311   1.358       .  A
C310        N315   1.358       .  A
C310        C525   1.438       .  S
N311        C312   1.361       .  A
C312        N313   1.356       .  A
C312        C528   1.476       .  S
N313        C314   1.356       .  A
C314        N315   1.358       .  A
C314        C524   1.435       .  S
C316        N317   1.356       .  A
C316        N321   1.356       .  A
C316        C522   1.433       .  S
N317        C318   1.356       .  A
C318        N319   1.358       .  A
C318        C515   1.435       .  S
N319        C320   1.361       .  A
C320        N321   1.358       .  A
C320        C517   1.477       .  S
C322        N323   1.356       .  A
C322        N327   1.357       .  A
C322        C513   1.435       .  S
N323        C324   1.356       .  A
C324        N325   1.357       .  A
C324        C511   1.433       .  S
N325        C326   1.358       .  A
C326        N327   1.361       .  A
C326        C518   1.478       .  S
C328        N329   1.360       .  A
C328        N333   1.356       .  A
C328        C503   1.438       .  S
N329        C330   1.363       .  A
C330        N331   1.356       .  A
C330        C506   1.478       .  S
N331        C332   1.355       .  A
C332        N333   1.355       .  A
C332        C510   1.431       .  S
C334        N335   1.356       .  A
C334        N339   1.354       .  A
C334        C499   1.432       .  S
N335        C336   1.357       .  A
C336        N337   1.361       .  A
C336        C501   1.439       .  S
N337        C338   1.363       .  A
C338        N339   1.355       .  A
C338        C505   1.478       .  S
C340        N341   1.356       .  A
C340        N345   1.357       .  A
C340        C497   1.433       .  S
N341        C342   1.356       .  A
C342        N343   1.358       .  A
C342        C496   1.437       .  S
N343        C344   1.360       .  A
C344        N345   1.360       .  A
C344        C491   1.478       .  S
C346        N347   1.359       .  A
C346        N351   1.357       .  A
C346        C489   1.440       .  S
N347        C348   1.360       .  A
C348        N349   1.359       .  A
C348        C492   1.479       .  S
N349        C350   1.356       .  A
C350        N351   1.357       .  A
C350        C488   1.435       .  S
N352        N353   1.319       .  A
N352        N358   1.316       .  A
N352       Mn381   2.193       .  S
N353        C360   1.349       .  A
N354        N356   1.316       .  A
N354        N355   1.320       .  A
N354       Mn370   2.196       .  S
N355        C361   1.349       .  A
N356        N357   1.320       .  A
N356       Mn381   2.205       .  S
N357        C361   1.351       .  A
N358        N359   1.322       .  A
N358       Mn370   2.208       .  S
N359        C360   1.352       .  A
C360        C548   1.435       .  S
C361        C500   1.433       .  S
N362        N368   1.316       .  A
N362        N363   1.321       .  A
N362       Mn392   2.198       .  S
N363        C371   1.350       .  A
N364        N365   1.321       .  A
N364        N366   1.317       .  A
N365        C372   1.351       .  A
N366        N367   1.321       .  A
N366       Mn392   2.206       .  S
N367        C372   1.351       .  A
N368        N369   1.322       .  A
N369        C371   1.352       .  A
Mn370      Cl394   2.550       .  S
C371        C504   1.438       .  S
C372        C552   1.437       .  S
N373        N374   1.320       .  A
N373        N379   1.316       .  A
N373       Mn381   2.197       .  S
N374        C382   1.350       .  A
N375        N377   1.316       .  A
N375        N376   1.321       .  A
N375       Mn393   2.201       .  S
N376        C383   1.351       .  A
N377        N378   1.321       .  A
N377       Mn381   2.205       .  S
N378        C383   1.351       .  A
N379        N380   1.322       .  A
N379       Mn393   2.210       .  S
N380        C382   1.352       .  A
Mn381      Cl394   2.545       .  S
C382        C495   1.437       .  S
C383        C523   1.436       .  S
N384        N385   1.320       .  A
N384        N390   1.316       .  A
N384       Mn392   2.198       .  S
N385        C395   1.350       .  A
N386        N387   1.320       .  A
N386        N388   1.317       .  A
N387        C396   1.349       .  A
N388        N389   1.322       .  A
N388       Mn392   2.207       .  S
N389        C396   1.352       .  A
N390        N391   1.320       .  A
N391        C395   1.351       .  A
Mn393      Cl394   2.551       .  S
C395        C531   1.433       .  S
C396        C487   1.435       .  S
N397        N398   1.320       .  A
N397        N403   1.316   1_455  A
N397       Mn426   2.198   1_455  S
N398        C405   1.350       .  A
N399        N401   1.316       .  A
N399        N400   1.320       .  A
N400        C406   1.350       .  A
N401        N402   1.320       .  A
N401       Mn426   2.200       .  S
N402        C406   1.350       .  A
N403        N404   1.320   1_655  A
N404        C405   1.350       .  A
C405        C535   1.433       .  S
C406        C509   1.432       .  S
N407        N413   1.316       .  A
N407        N408   1.321       .  A
N407       Mn437   2.203       .  S
N408        C416   1.350       .  A
N409        N410   1.322       .  A
N409        N411   1.318       .  A
N409       Mn415   2.213   1_455  S
N410        C417   1.352       .  A
N411        N412   1.321       .  A
N411       Mn437   2.203   1_455  S
N412        C417   1.350       .  A
N413        N414   1.322       .  A
N413       Mn415   2.209       .  S
N414        C416   1.352       .  A
Mn415      Cl439   2.554       .  S
C416        C502   1.439       .  S
C417        C540   1.438       .  S
N418        N419   1.320       .  A
N418        N424   1.316       .  A
N418       Mn426   2.196       .  S
N419        C427   1.350       .  A
N420        N422   1.317       .  A
N420        N421   1.321       .  A
N421        C428   1.351       .  A
N422        N423   1.319       .  A
N422       Mn426   2.198   1_455  S
N423        C428   1.349       .  A
N424        N425   1.321       .  A
N425        C427   1.352       .  A
C427        C514   1.435       .  S
C428        C534   1.431       .  S
N429        N430   1.322       .  A
N429        N435   1.316       .  A
N429       Mn437   2.206   1_455  S
N430        C440   1.352       .  A
N431        N432   1.321       .  A
N431        N433   1.317       .  A
N431       Mn438   2.204       .  S
N432        C441   1.351       .  A
N433        N434   1.320       .  A
N433       Mn437   2.201       .  S
N434        C441   1.350       .  A
N435        N436   1.321       .  A
N435       Mn438   2.204   1_455  S
N436        C440   1.351       .  A
Mn437      Cl439   2.548       .  S
Mn438      Cl439   2.553       .  S
C440        C526   1.438       .  S
C441        C521   1.434       .  S
N442        N443   1.319       .  A
N442        N448   1.316       .  A
N442       Mn471   2.196       .  S
N443        C450   1.349       .  A
N444        N446   1.316       .  A
N444        N445   1.321       .  A
N445        C451   1.350       .  A
N446        N447   1.320       .  A
N446       Mn471   2.201   1_545  S
N447        C451   1.350       .  A
N448        N449   1.322       .  A
N449        C450   1.352       .  A
C450        C554   1.435       .  S
C451        C512   1.433       .  S
N452        N458   1.316       .  A
N452        N453   1.320       .  A
N452       Mn482   2.196   1_545  S
N453        C461   1.350       .  A
N454        N455   1.321       .  A
N454        N456   1.316       .  A
N454       Mn460   2.202       .  S
N455        C462   1.351       .  A
N456        N457   1.321       .  A
N456       Mn482   2.205       .  S
N457        C462   1.351       .  A
N458        N459   1.321       .  A
N458       Mn460   2.207   1_545  S
N459        C461   1.352       .  A
Mn460      Cl484   2.548       .  S
C461        C516   1.435       .  S
C462        C550   1.437       .  S
N463        N464   1.320       .  A
N463        N469   1.317       .  A
N463       Mn471   2.196   1_545  S
N464        C472   1.349       .  A
N465        N467   1.317       .  A
N465        N466   1.323       .  A
N466        C473   1.354       .  A
N467        N468   1.321       .  A
N467       Mn471   2.203       .  S
N468        C473   1.350       .  A
N469        N470   1.323       .  A
N470        C472   1.354       .  A
C472        C490   1.440       .  S
C473        C538   1.442       .  S
N474        N475   1.319       .  A
N474        N480   1.316       .  A
N474       Mn482   2.195       .  S
N475        C485   1.350       .  A
N476        N477   1.320       .  A
N476        N478   1.316       .  A
N476       Mn483   2.196   1_545  S
N477        C486   1.350       .  A
N478        N479   1.321       .  A
N478       Mn482   2.203   1_545  S
N479        C486   1.351       .  A
N480        N481   1.320       .  A
N480       Mn483   2.196       .  S
N481        C485   1.349       .  A
Mn482      Cl484   2.546       .  S
Mn483      Cl484   2.547       .  S
C485        C546   1.429       .  S
C486        C498   1.433       .  S
C487        C488   1.205       .  T
C489        C490   1.208       .  T
C491        C492   1.347       .  D
C491        H493   1.086       .  S
C492        H494   1.086       .  S
C495        C496   1.207       .  T
C497        C498   1.204       .  T
C499        C500   1.204       .  T
C501        C502   1.208       .  T
C503        C504   1.207       .  T
C505        C506   1.341       .  D
C505        H507   1.086       .  S
C506        H508   1.086       .  S
C509        C510   1.203       .  T
C511        C512   1.204       .  T
C513        C514   1.205       .  T
C515        C516   1.205       .  T
C517        C518   1.344       .  D
C517        H519   1.087       .  S
C518        H520   1.087       .  S
C521        C522   1.204       .  T
C523        C524   1.206       .  T
C525        C526   1.207       .  T
C527        C528   1.343       .  D
C527        H529   1.086       .  S
C528        H530   1.086       .  S
C531        C532   1.204       .  T
C533        C534   1.203       .  T
C535        C536   1.204       .  T
C537        C538   1.209       .  T
C539        C540   1.207       .  T
C541        C542   1.340       .  D
C541        H543   1.087       .  S
C542        H544   1.087       .  S
C545        C546   1.202       .  T
C547        C548   1.205       .  T
C549        C550   1.206       .  T
C551        C552   1.206       .  T
C553        C554   1.205       .  T
C555        C556   1.344       .  D
C555        H557   1.086       .  S
C556        H558   1.086       .  S
