geometry optimzed in LAMMPS
_audit_creation_date              2020-12-01 
_audit_creation_method            'lammps2cif' 
_symmetry_space_group_name_H-M    'P1' 
_symmetry_Int_Tables_number       1 
_symmetry_cell_setting            triclinic 
loop_ 
_symmetry_equiv_pos_as_xyz 
  x,y,z 
_cell_length_a                    32.62772178 
_cell_length_b                    32.57684000404454 
_cell_length_c                    32.583490583064126 
_cell_angle_alpha                 90.1401341542487 
_cell_angle_beta                  90.12168636742302 
_cell_angle_gamma                 89.7996552623992 
loop_ 
_atom_site_label 
_atom_site_type_symbol 
_atom_site_fract_x 
_atom_site_fract_y 
_atom_site_fract_z 
_atom_site_charge 
C1          C  0.70008616  0.67404891  0.67831325     0.46300
H2          H  0.67989395  0.65535491  0.65835435    -0.02800
C3          C  0.74713026  0.71801108  0.72500404     0.46300
H4          H  0.76715565  0.73684108  0.74501310    -0.02800
C5          C  0.72825309  0.70292370  0.65379142    -0.16400
C6          C  0.67615755  0.70227443  0.70811848    -0.16200
C7          C  0.72893852  0.64773985  0.70548190    -0.16600
C8          C  0.75262987  0.72720852  0.67857692    -0.16600
C9          C  0.70107529  0.72458321  0.73393768    -0.16100
C10         C  0.75455810  0.67125070  0.72993628    -0.16400
C11         C  0.71150515  0.26469387  0.73079443     0.46300
H12         H  0.73058080  0.24788760  0.75269691    -0.02800
C13         C  0.66595648  0.30996632  0.68456189     0.46300
H14         H  0.64649196  0.33014827  0.66625370    -0.02800
C15         C  0.66635145  0.25921993  0.74002718    -0.16400
C16         C  0.72012404  0.31145310  0.73510479    -0.16200
C17         C  0.71487599  0.25242722  0.68450852    -0.16600
C18         C  0.64164515  0.28319767  0.71596028    -0.16600
C19         C  0.69667558  0.33544532  0.70941775    -0.16100
C20         C  0.69320602  0.28002302  0.65936565    -0.16400
C21         C  0.31242424  0.34218048  0.68918107     0.46300
H22         H  0.33091577  0.35896568  0.66692770    -0.02800
C23         C  0.26356989  0.30216337  0.73657695     0.46300
H24         H  0.24164210  0.28551551  0.75568615    -0.02800
C25         C  0.28564429  0.31016213  0.66623956    -0.16400
C26         C  0.33551290  0.31987900  0.72505637    -0.16200
C27         C  0.28246865  0.37043641  0.71112476    -0.16600
C28         C  0.26024147  0.28838078  0.69170512    -0.16600
C29         C  0.30914780  0.29447090  0.74745407    -0.16100
C30         C  0.25672369  0.34976509  0.73699276    -0.16400
C31         C  0.29759529  0.74984430  0.73361668     0.46300
H32         H  0.28196593  0.76518599  0.75829416    -0.02800
C33         C  0.33477017  0.70651983  0.67890171     0.46300
H34         H  0.34715963  0.68667563  0.65512619    -0.02800
C35         C  0.34435495  0.75066700  0.73916044    -0.16400
C36         C  0.28533299  0.70390743  0.73382288    -0.16200
C37         C  0.29071011  0.76742694  0.68975107    -0.16600
C38         C  0.36510447  0.72619491  0.71063492    -0.16600
C39         C  0.30476816  0.68112433  0.70439924    -0.16100
C40         C  0.30963742  0.74260137  0.66038210    -0.16400
C41         C  0.33295703  0.69685200  0.32583831     0.46300
H42         H  0.35047830  0.67895902  0.34874744    -0.02800
C43         C  0.29262679  0.74137092  0.27366987     0.46300
H44         H  0.27599103  0.76093049  0.25137321    -0.02800
C45         C  0.30546656  0.72915473  0.34690012    -0.16400
C46         C  0.36087072  0.72070613  0.29577631    -0.16200
C47         C  0.30355553  0.67120917  0.29830691    -0.16600
C48         C  0.28363788  0.75253776  0.31909263    -0.16600
C49         C  0.33944992  0.74474356  0.26840674    -0.16100
C50         C  0.28263252  0.69505176  0.26962741    -0.16400
C51         C  0.74695841  0.71069041  0.27089027     0.46300
H52         H  0.76796866  0.72994266  0.25259521    -0.02800
C53         C  0.69921503  0.66465709  0.31431714     0.46300
H54         H  0.67974853  0.64360449  0.33226775    -0.02800
C55         C  0.70061500  0.72134481  0.26590191    -0.16400
C56         C  0.75072957  0.66468876  0.26001358    -0.16200
C57         C  0.75557859  0.71446791  0.31730955    -0.16600
C58         C  0.67478996  0.69608569  0.28848446    -0.16600
C59         C  0.72535386  0.64064203  0.28310651    -0.16100
C60         C  0.72950766  0.69065134  0.34062794    -0.16400
C61         C  0.26187977  0.28896971  0.28292323     0.46300
H62         H  0.24197792  0.27039597  0.26294524    -0.02800
C63         C  0.30547644  0.33542418  0.32993159     0.46300
H64         H  0.32422729  0.35503453  0.34982533    -0.02800
C65         C  0.30898045  0.27973266  0.27997216    -0.16400
C66         C  0.25687182  0.33476531  0.27275658    -0.16200
C67         C  0.25066305  0.28407836  0.32896421    -0.16600
C68         C  0.33206370  0.30486794  0.30607326    -0.16600
C69         C  0.28022921  0.35946057  0.29722256    -0.16100
C70         C  0.27529006  0.30810398  0.35427312    -0.16400
C71         C  0.67552116  0.30917043  0.32488924     0.46300
H72         H  0.66282451  0.33123776  0.34721935    -0.02800
C73         C  0.70727026  0.25632293  0.27464748     0.46300
H74         H  0.71994243  0.23300860  0.25343619    -0.02800
C75         C  0.70019696  0.27482067  0.34690768    -0.16400
C76         C  0.64279387  0.28695326  0.29856899    -0.16200
C77         C  0.70525835  0.32943285  0.29356927    -0.16600
C78         C  0.71663830  0.24611448  0.31982900    -0.16600
C79         C  0.66009288  0.25983380  0.27124647    -0.16100
C80         C  0.72384973  0.30020214  0.26812564    -0.16400
O81         O  0.04624615  0.96820626  0.41755678    -0.71000
O82         O  0.94956035  0.03288783  0.43186692    -0.71200
O83         O  0.96624540  0.95183113  0.42583899    -0.71000
O84         O  0.03009348  0.04928780  0.42432708    -0.71000
O85         O  0.01960933  0.05489747  0.35882047    -0.71000
O86         O  0.96264036  0.95339701  0.35931248    -0.71000
O87         O  0.94091930  0.03247023  0.36569389    -0.71000
O88         O  0.04064587  0.97599117  0.35202599    -0.71200
V89         V  0.99789374  0.00072551  0.42376415     1.35200
V90         V  0.99101802  0.00420172  0.36030101     1.35200
C91         C  0.05991487  0.96078918  0.38191042     0.78300
C92         C  0.92845822  0.04293111  0.40079913     0.78300
C93         C  0.95466476  0.93530650  0.39265786     0.78200
C94         C  0.03583672  0.06875215  0.39130004     0.78200
O95         O  0.04330768  0.97194027  0.64963799    -0.71000
O96         O  0.95934546  0.05248256  0.64467587    -0.71200
O97         O  0.96143203  0.97060663  0.64537199    -0.71000
O98         O  0.04106879  0.05364169  0.64937999    -0.71000
O99         O  0.04506665  0.05397508  0.58294948    -0.71000
O100        O  0.96472960  0.96906640  0.57883124    -0.71000
O101        O  0.96200874  0.05147351  0.57799416    -0.71000
O102        O  0.04764911  0.97205129  0.58303622    -0.71200
V103        V  0.00132955  0.01215319  0.64586576     1.35200
V104        V  0.00473577  0.01167997  0.58188258     1.35200
C105        C  0.06041153  0.95912108  0.61729233     0.78300
C106        C  0.94593721  0.06512215  0.61056750     0.78300
C107        C  0.94896403  0.95593282  0.61177209     0.78200
C108        C  0.05766775  0.06723711  0.61730091     0.78200
O109        O  0.43317641  0.98495689  0.96436044    -0.71000
O110        O  0.43145887  0.06514504  0.04981586    -0.71200
O111        O  0.43052750  0.98230077  0.04718621    -0.71000
O112        O  0.43400271  0.06757835  0.96676897    -0.71000
O113        O  0.36746401  0.06608581  0.96334242    -0.71000
O114        O  0.36449248  0.98520641  0.04627324    -0.71000
O115        O  0.36514832  0.06713618  0.04568137    -0.71000
O116        O  0.36681906  0.98416873  0.96466993    -0.71200
V117        V  0.43115861  0.02506836  0.00703339     1.35200
V118        V  0.36736678  0.02577035  0.00503802     1.35200
C119        C  0.40003125  0.97066538  0.95005582     0.78300
C120        C  0.39773331  0.07929587  0.06271986     0.78300
C121        C  0.39663786  0.96901187  0.06065796     0.78200
C122        C  0.40102160  0.08039100  0.95068913     0.78200
O123        O  0.95375589  0.34832856  0.04714848    -0.71000
O124        O  0.02306221  0.35438716  0.95530385    -0.71200
O125        O  0.03421632  0.35343142  0.03676672    -0.71000
O126        O  0.94258360  0.34958184  0.96605043    -0.71000
O127        O  0.93733329  0.41604656  0.96887500    -0.71000
O128        O  0.03220983  0.41977118  0.03676704    -0.71000
O129        O  0.01802885  0.42043525  0.95505579    -0.71000
O130        O  0.95108738  0.41480575  0.05080451    -0.71200
V131        V  0.98837168  0.35281191  0.00135250     1.35200
V132        V  0.98470592  0.41662533  0.00288867     1.35200
C133        C  0.94120266  0.38017786  0.06530473     0.78300
C134        C  0.03175457  0.38801730  0.93841383     0.78300
C135        C  0.04916579  0.38703110  0.04900945     0.78200
C136        C  0.92445778  0.38208761  0.95524227     0.78200
O137        O  0.58726423  0.94662053  0.04781559    -0.71000
O138        O  0.57755528  0.02355610  0.96124579    -0.71200
O139        O  0.58378554  0.94118576  0.96551187    -0.71000
O140        O  0.58193489  0.02833361  0.04391565    -0.71000
O141        O  0.64738291  0.03474010  0.03745862    -0.71000
O142        O  0.65033944  0.94343942  0.96598970    -0.71000
O143        O  0.64389292  0.02468443  0.95591458    -0.71000
O144        O  0.65340435  0.95405727  0.04723711    -0.71200
V145        V  0.58378396  0.98504827  0.00447633     1.35200
V146        V  0.64743010  0.98919221  0.00157499     1.35200
C147        C  0.62190595  0.93820779  0.06296372     0.78300
C148        C  0.60920298  0.03667892  0.94337069     0.78300
C149        C  0.61778231  0.92682197  0.95334674     0.78200
C150        C  0.61471207  0.04609879  0.05480204     0.78200
O151        O  0.98495971  0.63989100  0.95625792    -0.71000
O152        O  0.05563288  0.63769259  0.04865662    -0.71200
O153        O  0.06582817  0.64563839  0.96797541    -0.71000
O154        O  0.97441744  0.63231650  0.03701509    -0.71000
O155        O  0.97818424  0.56611346  0.03071085    -0.71000
O156        O  0.07323740  0.57988955  0.96283115    -0.71000
O157        O  0.06059743  0.57130114  0.04378769    -0.71000
O158        O  0.99143455  0.57394686  0.94936361    -0.71200
V159        V  0.02028474  0.63745432  0.00243537     1.35200
V160        V  0.02568379  0.57392787  0.99684515     1.35200
C161        C  0.97628634  0.60745567  0.93677296     0.78300
C162        C  0.07092065  0.60436745  0.06128610     0.78300
C163        C  0.08606670  0.61558959  0.95418570     0.78200
C164        C  0.95970317  0.59744736  0.04483739     0.78200
C165        C  0.65430297  0.12234291  0.13574566    -0.04600
C166        C  0.61759833  0.13934733  0.15084655     0.09500
C167        C  0.57980106  0.12478560  0.13606172    -0.02000
C168        C  0.57867415  0.09339622  0.10610770    -0.00300
C169        C  0.61552417  0.07855804  0.08788539    -0.03900
C170        C  0.65356912  0.09378506  0.10322560     0.03100
C171        C  0.61942272  0.17373891  0.18128173     0.10000
C172        C  0.54199174  0.14180986  0.15229254     0.35800
C173        C  0.69262808  0.08033610  0.08651387     0.39300
C174        C  0.63288699  0.21275406  0.16857753    -0.04300
C175        C  0.64156037  0.24329990  0.19797355     0.02900
C176        C  0.63714712  0.23481104  0.24021808    -0.03900
C177        C  0.61646752  0.19874506  0.25190449    -0.00100
C178        C  0.60945712  0.16735748  0.22286645    -0.02700
C179        C  0.63997123  0.22066279  0.12534567     0.36600
C180        C  0.59929775  0.19508149  0.29251824     0.40200
C181        C  0.65515655  0.28327202  0.18429680     0.39300
C182        C  0.59363868  0.12800909  0.23605803     0.36300
C183        C  0.69307668  0.13323830  0.15480139     0.36900
C184        C  0.53939238  0.07563295  0.09574729     0.40200
N185        N  0.66645870  0.31463337  0.17216685    -0.37900
N186        N  0.64601692  0.22682861  0.09092847    -0.39500
N187        N  0.58321240  0.19181180  0.32391674    -0.37200
N188        N  0.58106257  0.09657163  0.24654488    -0.39600
N189        N  0.51203422  0.15530495  0.16573611    -0.39400
N190        N  0.50817016  0.06070403  0.08821031    -0.37000
N191        N  0.72395486  0.06997392  0.07339011    -0.38100
N192        N  0.72408814  0.14094529  0.17023915    -0.39700
C193        C  0.89335399  0.33095983  0.15849711    -0.04600
C194        C  0.85663589  0.35366940  0.16239418     0.09500
C195        C  0.85001416  0.38842143  0.13725576    -0.02000
C196        C  0.87949119  0.39977307  0.10773308    -0.00300
C197        C  0.91509783  0.37555313  0.10230347    -0.03900
C198        C  0.92292109  0.34256255  0.12946840     0.03100
C199        C  0.82341664  0.33816984  0.18986268     0.10000
C200        C  0.81140366  0.41050053  0.13935913     0.35800
C201        C  0.96156822  0.32033350  0.12763115     0.39300
C202        C  0.82876000  0.33692400  0.23290107    -0.04300
C203        C  0.79829655  0.31903015  0.25778504     0.02900
C204        C  0.76022099  0.30796544  0.24055918    -0.03900
C205        C  0.76019779  0.29938056  0.19796197    -0.00100
C206        C  0.78963312  0.31768128  0.17239878    -0.02700
C207        C  0.86540395  0.35382925  0.25148335     0.36600
C208        C  0.74169772  0.26225193  0.18262178     0.40200
C209        C  0.80749110  0.30795676  0.30000902     0.39300
C210        C  0.78711734  0.31202577  0.12820861     0.36300
C211        C  0.89944080  0.29371644  0.18220122     0.36900
C212        C  0.87207279  0.43517776  0.08179618     0.40200
N213        N  0.81486693  0.29899606  0.33359293    -0.37900
N214        N  0.89469525  0.36740247  0.26620615    -0.39500
N215        N  0.72990691  0.23159718  0.16917319    -0.37200
N216        N  0.78508012  0.30752027  0.09302032    -0.39600
N217        N  0.78033937  0.42773856  0.14014435    -0.39400
N218        N  0.86624988  0.46363541  0.06136960    -0.37000
N219        N  0.99243063  0.30275899  0.12625845    -0.38100
N220        N  0.90411980  0.26394364  0.20097182    -0.39700
C221        C  0.81136292  0.17771736  0.33737841    -0.04600
C222        C  0.79761825  0.15441006  0.37106706     0.09500
C223        C  0.75573269  0.15525002  0.38110342    -0.02000
C224        C  0.72859494  0.17889011  0.35729646    -0.00300
C225        C  0.74369901  0.21015649  0.33185591    -0.03900
C226        C  0.78422649  0.20476078  0.31702717     0.03100
C227        C  0.82551669  0.12272856  0.38902201     0.10000
C228        C  0.73994844  0.12940114  0.41351844     0.35800
C229        C  0.79610490  0.21887803  0.27680950     0.39300
C230        C  0.85874570  0.13468255  0.41409467    -0.04300
C231        C  0.89115760  0.10693145  0.42175488     0.02900
C232        C  0.89037560  0.06737173  0.40398035    -0.03900
C233        C  0.85516369  0.05415705  0.38247296    -0.00100
C234        C  0.82276790  0.08174941  0.37503567    -0.02700
C235        C  0.86077078  0.17640470  0.42954798     0.36600
C236        C  0.85314143  0.01262168  0.36628607     0.40200
C237        C  0.92682459  0.12027303  0.44477244     0.39300
C238        C  0.78794391  0.06876715  0.35047106     0.36300
C239        C  0.85274164  0.17179068  0.32196443     0.36900
C240        C  0.69027897  0.15988785  0.34607205     0.40200
N241        N  0.95537113  0.13079341  0.46307491    -0.37900
N242        N  0.86239443  0.20977940  0.44167151    -0.39500
N243        N  0.85161031  0.97957733  0.35325508    -0.37200
N244        N  0.76002126  0.05847919  0.33109427    -0.39600
N245        N  0.72745268  0.10888733  0.43956079    -0.39400
N246        N  0.66106301  0.14217005  0.33665907    -0.37000
N247        N  0.80748799  0.22691949  0.24421104    -0.38100
N248        N  0.88556796  0.16682125  0.30948491    -0.39700
C249        C  0.43974941  0.26272627  0.32385294    -0.04600
C250        C  0.46447806  0.29511659  0.31003001     0.09500
C251        C  0.44652344  0.33418354  0.30456094    -0.02000
C252        C  0.40365193  0.33905935  0.30786521    -0.00300
C253        C  0.37828660  0.30396480  0.31236881    -0.03900
C254        C  0.39761953  0.26955083  0.33001887     0.03100
C255        C  0.51001009  0.29060338  0.30760032     0.10000
C256        C  0.47247445  0.36982812  0.29850944     0.35800
C257        C  0.37963666  0.25135828  0.36606594     0.39300
C258        C  0.52959383  0.29526096  0.26954631    -0.04300
C259        C  0.57229448  0.30049837  0.26792633     0.02900
C260        C  0.59694559  0.29287956  0.30287145    -0.03900
C261        C  0.57702951  0.29082549  0.34147882    -0.00100
C262        C  0.53380157  0.28991228  0.34378638    -0.02700
C263        C  0.50536591  0.29792028  0.23223810     0.36600
C264        C  0.59977141  0.29608932  0.37905940     0.40200
C265        C  0.58801851  0.32554679  0.23511940     0.39300
C266        C  0.51368764  0.29057093  0.38352604     0.36300
C267        C  0.45773215  0.22335308  0.33423376     0.36900
C268        C  0.38884953  0.37963132  0.31814724     0.40200
N269        N  0.59755993  0.34865660  0.21002980    -0.37900
N270        N  0.48584176  0.30009414  0.20263922    -0.39500
N271        N  0.61658306  0.30286618  0.40954985    -0.37200
N272        N  0.49766639  0.29124879  0.41517884    -0.39600
N273        N  0.49325331  0.39814936  0.29385553    -0.39400
N274        N  0.37910488  0.41221134  0.32860240    -0.37000
N275        N  0.36809308  0.23720613  0.39640742    -0.38100
N276        N  0.47207614  0.19186548  0.34237829    -0.39700
C277        C  0.21457292  0.37913712  0.17156244    -0.04600
C278        C  0.17214489  0.37601382  0.17779858     0.09500
C279        C  0.15726807  0.36191613  0.21562206    -0.02000
C280        C  0.18476484  0.34902716  0.24656494    -0.00300
C281        C  0.22774623  0.35040665  0.24018544    -0.03900
C282        C  0.24226573  0.36494659  0.20174704     0.03100
C283        C  0.14338451  0.38108915  0.14240251     0.10000
C284        C  0.11329908  0.35946564  0.22208004     0.35800
C285        C  0.28407192  0.35794289  0.18894333     0.39300
C286        C  0.13755970  0.34807902  0.11501899    -0.04300
C287        C  0.10915311  0.35128513  0.08267078     0.02900
C288        C  0.08467054  0.38714189  0.07828234    -0.03900
C289        C  0.09273735  0.42133545  0.10429605    -0.00100
C290        C  0.12179062  0.41806233  0.13637695    -0.02700
C291        C  0.16003802  0.30999352  0.12059791     0.36600
C292        C  0.07152884  0.46007145  0.09864588     0.40200
C293        C  0.10614211  0.31752064  0.05358273     0.39300
C294        C  0.12902083  0.45248511  0.16377717     0.36300
C295        C  0.22959488  0.39484415  0.13273828     0.36900
C296        C  0.16761468  0.33224749  0.28367102     0.40200
N297        N  0.10396639  0.29052394  0.03052405    -0.37900
N298        N  0.17722733  0.27910035  0.12416933    -0.39500
N299        N  0.05534120  0.49140061  0.09419774    -0.37200
N300        N  0.13468503  0.47995510  0.18563095    -0.39600
N301        N  0.07826357  0.35764185  0.22719627    -0.39400
N302        N  0.15077234  0.31928221  0.31193868    -0.37000
N303        N  0.31584189  0.35049086  0.17502019    -0.38100
N304        N  0.24140163  0.40748771  0.10179864    -0.39700
C305        C  0.37726060  0.19674512  0.23007645    -0.04600
C306        C  0.36808443  0.20158524  0.18822209     0.09500
C307        C  0.33757809  0.22966315  0.17639759    -0.02000
C308        C  0.31533037  0.25159425  0.20637590    -0.00300
C309        C  0.32691953  0.25002659  0.24849609    -0.03900
C310        C  0.35435695  0.21818362  0.25996056     0.03100
C311        C  0.38000926  0.16853995  0.15868721     0.10000
C312        C  0.32654452  0.23318549  0.13327864     0.35800
C313        C  0.34924406  0.19773852  0.29884747     0.39300
C314        C  0.35625415  0.13247565  0.15734134    -0.04300
C315        C  0.36410243  0.10231271  0.12754854     0.02900
C316        C  0.39516606  0.10824229  0.09797409    -0.03900
C317        C  0.42104175  0.14292048  0.10130026    -0.00100
C318        C  0.41273568  0.17354410  0.13103260    -0.02700
C319        C  0.32243311  0.12702582  0.18571473     0.36600
C320        C  0.45569645  0.14767017  0.07403308     0.40200
C321        C  0.34063903  0.06454930  0.12826243     0.39300
C322        C  0.43668665  0.21089175  0.13222774     0.36300
C323        C  0.40753216  0.16640904  0.24245795     0.36900
C324        C  0.27535214  0.26605504  0.19414777     0.40200
N325        N  0.32186284  0.03452890  0.12939466    -0.37900
N326        N  0.29531567  0.12244120  0.20803996    -0.39500
N327        N  0.48368072  0.15172426  0.05267124    -0.37200
N328        N  0.45569213  0.24080185  0.13293850    -0.39600
N329        N  0.31773902  0.23601517  0.09897496    -0.39400
N330        N  0.24270854  0.27447507  0.18307893    -0.37000
N331        N  0.34520894  0.17806133  0.32805088    -0.38100
N332        N  0.43172980  0.14224078  0.25216531    -0.39700
C333        C  0.15669895  0.23749544  0.38566478    -0.04600
C334        C  0.15272076  0.19949634  0.36569132     0.09500
C335        C  0.18025005  0.18874132  0.33446680    -0.02000
C336        C  0.21200566  0.21566545  0.32309667    -0.00300
C337        C  0.21651493  0.25490007  0.34241073    -0.03900
C338        C  0.18806674  0.26517066  0.37426899     0.03100
C339        C  0.11977638  0.16990027  0.37747676     0.10000
C340        C  0.17599600  0.14914060  0.31418455     0.35800
C341        C  0.18905181  0.30435884  0.39527814     0.39300
C342        C  0.08186528  0.17035322  0.35665905    -0.04300
C343        C  0.05312447  0.13877341  0.36327746     0.02900
C344        C  0.06262656  0.10579260  0.38996786    -0.03900
C345        C  0.09976212  0.10685801  0.41266372    -0.00100
C346        C  0.12814732  0.13881949  0.40635443    -0.02700
C347        C  0.07329430  0.20251610  0.32710633     0.36600
C348        C  0.11014102  0.07400709  0.44087247     0.40200
C349        C  0.01358844  0.14058921  0.34289474     0.39300
C350        C  0.16703188  0.13874581  0.42806507     0.36300
C351        C  0.12789158  0.24816673  0.41791291     0.36900
C352        C  0.24081539  0.20044811  0.29293783     0.40200
N353        N  0.98196725  0.14218698  0.32680924    -0.37900
N354        N  0.06675865  0.22813115  0.30340453    -0.39500
N355        N  0.11846567  0.04788861  0.46345015    -0.37200
N356        N  0.19812835  0.13869676  0.44521517    -0.39600
N357        N  0.17257017  0.11762327  0.29809863    -0.39400
N358        N  0.26189440  0.18634246  0.26812920    -0.37000
N359        N  0.18834307  0.33460528  0.41395220    -0.38100
N360        N  0.10483216  0.25660158  0.44354523    -0.39700
C361        C  0.74330782  0.43599373  0.26099767    -0.04600
C362        C  0.71215185  0.46279210  0.27402710     0.09500
C363        C  0.67737647  0.44582583  0.29307997    -0.02000
C364        C  0.67305136  0.40273418  0.29559993    -0.00300
C365        C  0.70770218  0.37634195  0.28864857    -0.03900
C366        C  0.74475648  0.39658619  0.27800838     0.03100
C367        C  0.71789590  0.50842349  0.27252027     0.10000
C368        C  0.64651327  0.47252598  0.31133379     0.35800
C369        C  0.78007855  0.39198661  0.30431152     0.39300
C370        C  0.68767747  0.53358118  0.25446004    -0.04300
C371        C  0.68763659  0.57605756  0.26225642     0.02900
C372        C  0.72291129  0.59506086  0.27889699    -0.03900
C373        C  0.75591001  0.57012115  0.29186658    -0.00100
C374        C  0.75147450  0.52718439  0.29270002    -0.02700
C375        C  0.65610936  0.51567677  0.22857867     0.36600
C376        C  0.79366534  0.58809449  0.30677780     0.40200
C377        C  0.65046597  0.59887398  0.25402067     0.39300
C378        C  0.78018454  0.50309109  0.31680542     0.36300
C379        C  0.77859598  0.45128535  0.23890538     0.36900
C380        C  0.63278634  0.38827202  0.30671901     0.40200
N381        N  0.61934365  0.61443580  0.24701722    -0.37900
N382        N  0.63103828  0.50144017  0.20784489    -0.39500
N383        N  0.82463974  0.60090800  0.31827241    -0.37200
N384        N  0.80331668  0.48470249  0.33653667    -0.39600
N385        N  0.62193251  0.49370256  0.32587466    -0.39400
N386        N  0.59960542  0.38089314  0.31662573    -0.37000
N387        N  0.80842631  0.39191834  0.32577857    -0.38100
N388        N  0.80706745  0.46380820  0.22202876    -0.39700
C389        C  0.84758617  0.63676442  0.19856303    -0.04600
C390        C  0.83108871  0.61580691  0.16446806     0.09500
C391        C  0.78843947  0.61022099  0.16179562    -0.02000
C392        C  0.76224273  0.62695431  0.19209581    -0.00300
C393        C  0.77853463  0.64804799  0.22671494    -0.03900
C394        C  0.82158296  0.65331582  0.22911994     0.03100
C395        C  0.85842617  0.60489186  0.12900701     0.10000
C396        C  0.77145191  0.58827430  0.12689999     0.35800
C397        C  0.83992249  0.67655273  0.26222671     0.39300
C398        C  0.88505251  0.57067991  0.13085977    -0.04300
C399        C  0.91642630  0.56564706  0.10127796     0.02900
C400        C  0.92145805  0.59517468  0.06992321    -0.03900
C401        C  0.89125069  0.62623886  0.06523433    -0.00100
C402        C  0.86022310  0.63129678  0.09483302    -0.02700
C403        C  0.88079288  0.54135551  0.16391824     0.36600
C404        C  0.89197697  0.65325579  0.02982625     0.40200
C405        C  0.94401882  0.53087716  0.10419037     0.39300
C406        C  0.83091890  0.66467043  0.09077044     0.36300
C407        C  0.89167353  0.64186981  0.20176134     0.36900
C408        C  0.71865013  0.62681525  0.18406307     0.40200
N409        N  0.96541616  0.50260614  0.10670245    -0.37900
N410        N  0.87747416  0.51786008  0.19025712    -0.39500
N411        N  0.89253064  0.67474758  0.00159723    -0.37200
N412        N  0.80747760  0.69116175  0.08716502    -0.39600
N413        N  0.75793436  0.57079677  0.09905680    -0.39400
N414        N  0.68436923  0.62650777  0.17503057    -0.37000
N415        N  0.85663719  0.69496158  0.28755846    -0.38100
N416        N  0.92685109  0.64557761  0.20429793    -0.39700
C417        C  0.61484572  0.84280769  0.12843530    -0.04600
C418        C  0.64185635  0.85305634  0.16067918     0.09500
C419        C  0.65900790  0.89259621  0.16301740    -0.02000
C420        C  0.65088093  0.92126371  0.13188464    -0.00300
C421        C  0.62585887  0.91021510  0.09818221    -0.03900
C422        C  0.60672306  0.87140642  0.09719794     0.03100
C423        C  0.65718235  0.82040491  0.18847496     0.10000
C424        C  0.68673172  0.90293529  0.19635896     0.35800
C425        C  0.58100011  0.85975702  0.06270882     0.39300
C426        C  0.68798856  0.79379088  0.17430087    -0.04300
C427        C  0.70258060  0.76201208  0.19949421     0.02900
C428        C  0.68687825  0.75696211  0.23990649    -0.03900
C429        C  0.65794580  0.78625463  0.25488143    -0.00100
C430        C  0.64229155  0.81690146  0.22868904    -0.02700
C431        C  0.70457861  0.79916506  0.13324070     0.36600
C432        C  0.64444342  0.78608449  0.29722990     0.40200
C433        C  0.73325814  0.73486162  0.18227924     0.39300
C434        C  0.61065468  0.84489656  0.24293690     0.36300
C435        C  0.59765164  0.80186326  0.12601747     0.36900
C436        C  0.66845037  0.96204506  0.13457596     0.40200
N437        N  0.75843907  0.71547634  0.16645455    -0.37900
N438        N  0.71770085  0.80349096  0.10057137    -0.39500
N439        N  0.63204485  0.78650120  0.33047786    -0.37200
N440        N  0.58536717  0.86718331  0.25423142    -0.39600
N441        N  0.70887164  0.91105312  0.22293999    -0.39400
N442        N  0.68254276  0.99450400  0.13701262    -0.37000
N443        N  0.56055551  0.85045436  0.03517006    -0.38100
N444        N  0.58425657  0.76910330  0.12366519    -0.39700
C445        C  0.84648830  0.75714855  0.38102840    -0.04600
C446        C  0.84839403  0.79780382  0.36698701     0.09500
C447        C  0.82067559  0.81135364  0.33693032    -0.02000
C448        C  0.79114133  0.78445660  0.32046584    -0.00300
C449        C  0.78839064  0.74304303  0.33426724    -0.03900
C450        C  0.81717111  0.72966929  0.36452986     0.03100
C451        C  0.88103247  0.82663986  0.38129522     0.10000
C452        C  0.82263361  0.85371368  0.32293638     0.35800
C453        C  0.81913985  0.68721533  0.37740394     0.39300
C454        C  0.91711251  0.83057461  0.35796784    -0.04300
C455        C  0.94276374  0.86482031  0.36369387     0.02900
C456        C  0.93205328  0.89573968  0.39233891    -0.03900
C457        C  0.89822992  0.88945904  0.41869491    -0.00100
C458        C  0.87280747  0.85487109  0.41313275    -0.02700
C459        C  0.92667082  0.80025750  0.32668114     0.36600
C460        C  0.88808693  0.91960241  0.44993199     0.40200
C461        C  0.98036656  0.86793773  0.34026531     0.39300
C462        C  0.83707327  0.84917814  0.43883352     0.36300
C463        C  0.87525285  0.74362791  0.41223715     0.36900
C464        C  0.76341110  0.80161366  0.29035743     0.40200
N465        N  0.01047280  0.86992455  0.32169288    -0.37900
N466        N  0.93414762  0.77601551  0.30175095    -0.39500
N467        N  0.88006575  0.94360530  0.47492831    -0.37200
N468        N  0.80864806  0.84449363  0.45944958    -0.39600
N469        N  0.82418648  0.88741523  0.31191596    -0.39400
N470        N  0.74364149  0.81918769  0.26669199    -0.37000
N471        N  0.82213392  0.65381603  0.38903100    -0.38100
N472        N  0.89822333  0.73305300  0.43720294    -0.39700
C473        C  0.25502569  0.47145020  0.32006247    -0.04600
C474        C  0.28339561  0.49262584  0.29532635     0.09500
C475        C  0.30795184  0.47001930  0.26763610    -0.02000
C476        C  0.30811778  0.42669127  0.26879871    -0.00300
C477        C  0.27982313  0.40543682  0.29391716    -0.03900
C478        C  0.25085116  0.42856829  0.31637131     0.03100
C479        C  0.28822238  0.53836202  0.29922995     0.10000
C480        C  0.33375573  0.49136397  0.23841111     0.35800
C481        C  0.21673493  0.40883650  0.33637628     0.39300
C482        C  0.32624245  0.55544131  0.31084852    -0.04300
C483        C  0.33200623  0.59840362  0.31001023     0.02900
C484        C  0.29799251  0.62525536  0.30367284    -0.03900
C485        C  0.25849592  0.60715924  0.30039335    -0.00100
C486        C  0.25462201  0.56483337  0.29268571    -0.02700
C487        C  0.35973724  0.52877808  0.32345725     0.36600
C488        C  0.22138265  0.63107003  0.30590191     0.40200
C489        C  0.37339123  0.61352247  0.31506244     0.39300
C490        C  0.21637918  0.54895404  0.27635643     0.36300
C491        C  0.23138360  0.49336963  0.35086953     0.36900
C492        C  0.33963832  0.40512661  0.24611350     0.40200
N493        N  0.40698156  0.62368907  0.32006141    -0.37900
N494        N  0.38658358  0.50781942  0.33363250    -0.39500
N495        N  0.19085654  0.64879127  0.30990852    -0.37200
N496        N  0.18604790  0.53636956  0.26291644    -0.39600
N497        N  0.35438391  0.50824413  0.21509501    -0.39400
N498        N  0.36675951  0.38991100  0.22891126    -0.37000
N499        N  0.18836224  0.39514438  0.35238318    -0.38100
N500        N  0.21265839  0.51086009  0.37549851    -0.39700
C501        C  0.47426925  0.72896522  0.32487455    -0.04600
C502        C  0.49378934  0.70760881  0.29240397     0.09500
C503        C  0.46900534  0.68930693  0.26179971    -0.02000
C504        C  0.42629520  0.69644513  0.26118864    -0.00300
C505        C  0.40667271  0.71536966  0.29506240    -0.03900
C506        C  0.43113898  0.72856946  0.32841018     0.03100
C507        C  0.53998427  0.70363565  0.29092858     0.10000
C508        C  0.48713742  0.66215163  0.23139520     0.35800
C509        C  0.41263146  0.74194336  0.36653049     0.39300
C510        C  0.56198681  0.68759726  0.32458461    -0.04300
C511        C  0.60523161  0.68944350  0.32538505     0.02900
C512        C  0.62783949  0.69732114  0.28877060    -0.03900
C513        C  0.60450009  0.70641753  0.25282630    -0.00100
C514        C  0.56220622  0.71525904  0.25573240    -0.02700
C515        C  0.54023107  0.66905666  0.35867054     0.36600
C516        C  0.62189115  0.70330255  0.21209484     0.40200
C517        C  0.62462293  0.68609940  0.36520417     0.39300
C518        C  0.54179910  0.73685035  0.22254199     0.36300
C519        C  0.49832672  0.75243034  0.35414011     0.36900
C520        C  0.40312041  0.68338781  0.22564915     0.40200
N521        N  0.63747255  0.68342448  0.39819762    -0.37900
N522        N  0.52292770  0.65420555  0.38578627    -0.39500
N523        N  0.63404829  0.70072411  0.17885480    -0.37200
N524        N  0.52521202  0.75424082  0.19638304    -0.39600
N525        N  0.50153614  0.64047888  0.20715664    -0.39400
N526        N  0.38649405  0.67341779  0.19591554    -0.37000
N527        N  0.39938711  0.75239510  0.39775832    -0.38100
N528        N  0.51749991  0.77125947  0.37738324    -0.39700
C529        C  0.18659918  0.68325609  0.20070264    -0.04600
C530        C  0.19369405  0.64498856  0.18186440     0.09500
C531        C  0.23099598  0.62442070  0.18931606    -0.02000
C532        C  0.26156808  0.64277566  0.21395937    -0.00300
C533        C  0.25289086  0.67898453  0.23717786    -0.03900
C534        C  0.21463682  0.69903675  0.22975616     0.03100
C535        C  0.16301152  0.62801354  0.15189085     0.10000
C536        C  0.23792691  0.58404625  0.17157246     0.35800
C537        C  0.20184974  0.73505673  0.25244170     0.39300
C538        C  0.17322589  0.62501816  0.10988918    -0.04300
C539        C  0.14399174  0.61123645  0.08129917     0.02900
C540        C  0.10298509  0.60539299  0.09336471    -0.03900
C541        C  0.09263341  0.60738791  0.13529752    -0.00100
C542        C  0.12302176  0.61712771  0.16473976    -0.02700
C543        C  0.21295856  0.63871827  0.09550571     0.36600
C544        C  0.05067018  0.60018859  0.14789437     0.40200
C545        C  0.15639079  0.60295924  0.03941183     0.39300
C546        C  0.11286702  0.61739291  0.20804819     0.36300
C547        C  0.15025369  0.70681816  0.18979393     0.36900
C548        C  0.30193648  0.62413144  0.21391529     0.40200
N549        N  0.16748296  0.59533518  0.00657442    -0.37900
N550        N  0.24450105  0.64996614  0.08398744    -0.39500
N551        N  0.01714596  0.59449862  0.15787424    -0.37200
N552        N  0.10483728  0.61778099  0.24262787    -0.39600
N553        N  0.24337628  0.55184556  0.15748489    -0.39400
N554        N  0.33325546  0.60739170  0.21318678    -0.37000
N555        N  0.18891161  0.76397471  0.26854142    -0.38100
N556        N  0.12140553  0.72564575  0.18102298    -0.39700
C557        C  0.35269256  0.89214997  0.13857965    -0.04600
C558        C  0.38762421  0.86900439  0.14953425     0.09500
C559        C  0.42596000  0.87946897  0.13268934    -0.02000
C560        C  0.42944804  0.91305953  0.10537363    -0.00300
C561        C  0.39394701  0.93502120  0.09213473    -0.03900
C562        C  0.35528558  0.92344225  0.10888557     0.03100
C563        C  0.38289005  0.83303230  0.17807799     0.10000
C564        C  0.46190027  0.85522282  0.14304739     0.35800
C565        C  0.31722408  0.94238048  0.09538625     0.39300
C566        C  0.35924883  0.79908550  0.16569517    -0.04300
C567        C  0.34629610  0.76968453  0.19463672     0.02900
C568        C  0.35833509  0.77265034  0.23648248    -0.03900
C569        C  0.38498016  0.80526265  0.24795667    -0.00100
C570        C  0.39706259  0.83513453  0.21888843    -0.02700
C571        C  0.34665034  0.79548752  0.12301907     0.36600
C572        C  0.39538288  0.81264420  0.29050276     0.40200
C573        C  0.31963027  0.73728388  0.18029781     0.39300
C574        C  0.42179759  0.86985367  0.23173613     0.36300
C575        C  0.31351025  0.88351304  0.15787385     0.36900
C576        C  0.46992969  0.92430089  0.09109333     0.40200
N577        N  0.29863946  0.71259321  0.16591270    -0.37900
N578        N  0.33639023  0.79281021  0.08909868    -0.39500
N579        N  0.40441378  0.82122225  0.32376106    -0.37200
N580        N  0.44168389  0.89742668  0.24190553    -0.39600
N581        N  0.49067345  0.83604821  0.15128195    -0.39400
N582        N  0.50238635  0.93329254  0.08014622    -0.37000
N583        N  0.28656990  0.95679237  0.08459778    -0.38100
N584        N  0.28222125  0.87674464  0.17304524    -0.39700
C585        C  0.18869504  0.80377514  0.36662416    -0.04600
C586        C  0.19300585  0.84447153  0.35292774     0.09500
C587        C  0.22672776  0.85518966  0.32847731    -0.02000
C588        C  0.25485256  0.82495080  0.31572322    -0.00300
C589        C  0.25208469  0.78422680  0.33079773    -0.03900
C590        C  0.21841351  0.77391492  0.35637043     0.03100
C591        C  0.15996075  0.87534473  0.36067222     0.10000
C592        C  0.23200682  0.89759796  0.31576932     0.35800
C593        C  0.21200372  0.73213867  0.36993112     0.39300
C594        C  0.15413097  0.89212388  0.40008203    -0.04300
C595        C  0.12185878  0.92017604  0.40739479     0.02900
C596        C  0.09629564  0.93340895  0.37449789    -0.03900
C597        C  0.10464210  0.91832833  0.33417333    -0.00100
C598        C  0.13498041  0.88824747  0.32789821    -0.02700
C599        C  0.18176115  0.88051052  0.43301976     0.36600
C600        C  0.08254602  0.93313502  0.29834406     0.40200
C601        C  0.11570062  0.93519239  0.44890703     0.39300
C602        C  0.14030917  0.87007064  0.28742870     0.36300
C603        C  0.15262102  0.79232500  0.38990998     0.36900
C604        C  0.28585858  0.83688079  0.28656680     0.40200
N605        N  0.11090045  0.94674019  0.48218774    -0.37900
N606        N  0.20410862  0.87107668  0.45896220    -0.39500
N607        N  0.06537505  0.94484302  0.26950662    -0.37200
N608        N  0.14459340  0.85566451  0.25521278    -0.39600
N609        N  0.23617606  0.93133368  0.30559051    -0.39400
N610        N  0.30868412  0.84937526  0.26264450    -0.37000
N611        N  0.20568465  0.69937934  0.38190930    -0.38100
N612        N  0.12375337  0.78330835  0.40834129    -0.39700
C613        C  0.29558205  0.70221523  0.46190664    -0.04600
C614        C  0.29809450  0.74100509  0.48064007     0.09500
C615        C  0.30350043  0.77604810  0.45599424    -0.02000
C616        C  0.30755081  0.77219824  0.41292895    -0.00300
C617        C  0.30311532  0.73335949  0.39334134    -0.03900
C618        C  0.29693932  0.69835812  0.41873243     0.03100
C619        C  0.29983934  0.74415105  0.52662967     0.10000
C620        C  0.30655344  0.81610893  0.47534912     0.35800
C621        C  0.29040913  0.65784236  0.40176918     0.39300
C622        C  0.33774715  0.75068078  0.54598411    -0.04300
C623        C  0.34039066  0.75274729  0.58911884     0.02900
C624        C  0.30548470  0.74582035  0.61411134    -0.03900
C625        C  0.26714482  0.74003308  0.59425191    -0.00100
C626        C  0.26438625  0.73950372  0.55081952    -0.02700
C627        C  0.37442638  0.75551359  0.52118123     0.36600
C628        C  0.22990532  0.73678590  0.61793736     0.40200
C629        C  0.37858991  0.76699124  0.60613897     0.39300
C630        C  0.22502613  0.73412404  0.53078700     0.36300
C631        C  0.29281325  0.66584193  0.48750128     0.36900
C632        C  0.31983429  0.80808222  0.38994288     0.40200
N633        N  0.41046751  0.77943282  0.61519261    -0.37900
N634        N  0.40359336  0.75953409  0.50146744    -0.39500
N635        N  0.19919620  0.73570324  0.63550632    -0.37200
N636        N  0.19369917  0.72977014  0.51466330    -0.39600
N637        N  0.30923972  0.84800286  0.49081779    -0.39400
N638        N  0.32999983  0.83753360  0.37307752    -0.37000
N639        N  0.28448321  0.62433534  0.39166885    -0.38100
N640        N  0.29089346  0.63694432  0.50798857    -0.39700
C641        C  0.24988800  0.64300964  0.82835633    -0.04600
C642        C  0.20880711  0.65593182  0.83197603     0.09500
C643        C  0.19255137  0.68360736  0.80286286    -0.02000
C644        C  0.21760331  0.69969034  0.77157504    -0.00300
C645        C  0.25851113  0.68592825  0.76685075    -0.03900
C646        C  0.27419051  0.65668406  0.79524221     0.03100
C647        C  0.18305990  0.64309180  0.86789801     0.10000
C648        C  0.14988005  0.69617066  0.80563674     0.35800
C649        C  0.31650697  0.64337131  0.79364885     0.39300
C650        C  0.17110691  0.67261510  0.89721827    -0.04300
C651        C  0.14113888  0.66311992  0.92675391     0.02900
C652        C  0.12327255  0.62330088  0.92797019    -0.03900
C653        C  0.14103265  0.59202145  0.90325531    -0.00100
C654        C  0.16958268  0.60220753  0.87228576    -0.02700
C655        C  0.18969294  0.71307705  0.89674227     0.36600
C656        C  0.13235447  0.54920944  0.91109188     0.40200
C657        C  0.13016872  0.69440766  0.95663772     0.39300
C658        C  0.18515245  0.57070237  0.84484457     0.36300
C659        C  0.26803406  0.61781631  0.86035363     0.36900
C660        C  0.20047264  0.73020441  0.74422912     0.40200
N661        N  0.12160743  0.71943680  0.98042611    -0.37900
N662        N  0.20457191  0.74527001  0.89634194    -0.39500
N663        N  0.12686805  0.51490936  0.91826465    -0.37200
N664        N  0.19834817  0.54585475  0.82307681    -0.39600
N665        N  0.11591796  0.70623132  0.80808751    -0.39400
N666        N  0.18514177  0.75428764  0.72315105    -0.37000
N667        N  0.34990930  0.63141611  0.79426494    -0.38100
N668        N  0.28257001  0.59794155  0.88596670    -0.39700
C669        C  0.12542453  0.86550885  0.64114272    -0.04600
C670        C  0.16526531  0.88214116  0.63820768     0.09500
C671        C  0.17031704  0.92295579  0.62449208    -0.02000
C672        C  0.13580522  0.94680241  0.61386543    -0.00300
C673        C  0.09601915  0.93120942  0.62011149    -0.03900
C674        C  0.09084498  0.89037870  0.63326326     0.03100
C675        C  0.20141248  0.85790900  0.65309247     0.10000
C676        C  0.21078313  0.94128638  0.62362210     0.35800
C677        C  0.04990583  0.87419745  0.63912166     0.39300
C678        C  0.23278261  0.84569320  0.62611920    -0.04300
C679        C  0.26764930  0.82553947  0.64160769     0.02900
C680        C  0.26664006  0.80726241  0.68090697    -0.03900
C681        C  0.24005602  0.82705615  0.70967286    -0.00100
C682        C  0.20697648  0.85140776  0.69547168    -0.02700
C683        C  0.23011636  0.85471451  0.58271725     0.36600
C684        C  0.24919712  0.82908472  0.75307428     0.40200
C685        C  0.30662683  0.83621228  0.62365528     0.39300
C686        C  0.17921400  0.87080005  0.72451039     0.36300
C687        C  0.12004385  0.82308407  0.65331387     0.36900
C688        C  0.14130427  0.98786734  0.59767381     0.40200
N689        N  0.33697243  0.84750726  0.60933104    -0.37900
N690        N  0.22795607  0.86179987  0.54802197    -0.39500
N691        N  0.25571857  0.83189279  0.78791628    -0.37200
N692        N  0.15716322  0.88638396  0.74759907    -0.39600
N693        N  0.24303619  0.95594861  0.62309954    -0.39400
N694        N  0.14605200  0.02034287  0.58422195    -0.37000
N695        N  0.01722409  0.86139718  0.64391843    -0.38100
N696        N  0.11565656  0.78922856  0.66297001    -0.39700
C697        C  0.40439480  0.84087965  0.78775553    -0.04600
C698        C  0.38834820  0.84153908  0.82763296     0.09500
C699        C  0.36086310  0.81093477  0.83987063    -0.02000
C700        C  0.34770266  0.78075504  0.81176411    -0.00300
C701        C  0.36236507  0.78030042  0.77052041    -0.03900
C702        C  0.39120435  0.81090733  0.75917860     0.03100
C703        C  0.39522733  0.87749738  0.85529129     0.10000
C704        C  0.34489441  0.81156934  0.88153242     0.35800
C705        C  0.40590408  0.81450956  0.71772963     0.39300
C706        C  0.36485759  0.90819376  0.85733017    -0.04300
C707        C  0.36609827  0.93809440  0.88846220     0.02900
C708        C  0.39941624  0.93917707  0.91662882    -0.03900
C709        C  0.43139134  0.90972577  0.91265284    -0.00100
C710        C  0.42901873  0.87880810  0.88222556    -0.02700
C711        C  0.33210149  0.90891555  0.82708445     0.36600
C712        C  0.46565750  0.90948830  0.94110156     0.40200
C713        C  0.33279015  0.96773773  0.89083582     0.39300
C714        C  0.46097615  0.84791688  0.87888419     0.36300
C715        C  0.43326468  0.87245655  0.77573208     0.36900
C716        C  0.31872115  0.75090431  0.82680491     0.40200
N717        N  0.30607018  0.99113657  0.89264287    -0.37900
N718        N  0.30627053  0.90995162  0.80272452    -0.39500
N719        N  0.49298387  0.90913758  0.96380862    -0.37200
N720        N  0.48657363  0.82339212  0.87606391    -0.39600
N721        N  0.33212985  0.81224149  0.91464014    -0.39400
N722        N  0.29532688  0.72930583  0.84215861    -0.37000
N723        N  0.41970853  0.82039839  0.68571973    -0.38100
N724        N  0.45630664  0.89763391  0.76628385    -0.39700
C725        C  0.27882621  0.26462100  0.46463153    -0.04600
C726        C  0.28314404  0.30059782  0.48779932     0.09500
C727        C  0.28687641  0.33859136  0.46817968    -0.02000
C728        C  0.28365334  0.34125813  0.42520874    -0.00300
C729        C  0.27872727  0.30512034  0.40070745    -0.03900
C730        C  0.27822581  0.26645070  0.42138885     0.03100
C731        C  0.28350679  0.29907679  0.53336836     0.10000
C732        C  0.29430060  0.37529430  0.49260495     0.35800
C733        C  0.27907341  0.22774287  0.39954418     0.39300
C734        C  0.32094434  0.29742450  0.55453737    -0.04300
C735        C  0.32187307  0.30192078  0.59752615     0.02900
C736        C  0.28490007  0.30674519  0.62004711    -0.03900
C737        C  0.24717110  0.30833805  0.59792259    -0.00100
C738        C  0.24666370  0.30385292  0.55495971    -0.02700
C739        C  0.35865892  0.29128149  0.53166302     0.36600
C740        C  0.20876958  0.31830565  0.61785319     0.40200
C741        C  0.36146681  0.30146419  0.61746288     0.39300
C742        C  0.20817145  0.30543090  0.53247441     0.36300
C743        C  0.27546979  0.22551738  0.48567734     0.36900
C744        C  0.28521899  0.38210941  0.40795977     0.40200
N745        N  0.39436488  0.30136763  0.63066296    -0.37900
N746        N  0.38860133  0.28616500  0.51334593    -0.39500
N747        N  0.17697131  0.32582591  0.63162950    -0.37200
N748        N  0.17758885  0.30664488  0.51445891    -0.39600
N749        N  0.30067958  0.40457041  0.51172676    -0.39400
N750        N  0.28846755  0.41572182  0.39714569    -0.37000
N751        N  0.27979529  0.19562221  0.38435609    -0.38100
N752        N  0.27270866  0.19445660  0.50258293    -0.39700
C753        C  0.29300619  0.48381779  0.73888802    -0.04600
C754        C  0.28483424  0.50313269  0.70108784     0.09500
C755        C  0.27848140  0.47906987  0.66576908    -0.02000
C756        C  0.27783103  0.43586062  0.66868031    -0.00300
C757        C  0.28460406  0.41629171  0.70695459    -0.03900
C758        C  0.29589521  0.44075087  0.74096801     0.03100
C759        C  0.28954698  0.54859015  0.69750964     0.10000
C760        C  0.27434364  0.49889506  0.62609267     0.35800
C761        C  0.31804448  0.42270729  0.77493489     0.39300
C762        C  0.32901775  0.56556526  0.69848217    -0.04300
C763        C  0.33424330  0.60844137  0.69999071     0.02900
C764        C  0.29973454  0.63527769  0.69873050    -0.03900
C765        C  0.26028099  0.61759394  0.69350805    -0.00100
C766        C  0.25521849  0.57452178  0.69405572    -0.02700
C767        C  0.36453158  0.53841419  0.69912115     0.36600
C768        C  0.22448758  0.64291509  0.68653080     0.40200
C769        C  0.37549824  0.62301533  0.70661810     0.39300
C770        C  0.21459997  0.55668019  0.69140681     0.36300
C771        C  0.30047021  0.50851562  0.77527421     0.36900
C772        C  0.27216614  0.41245581  0.63141126     0.40200
N773        N  0.40960405  0.63002846  0.71313850    -0.37900
N774        N  0.39273467  0.51678140  0.69972651    -0.39500
N775        N  0.19455142  0.66110354  0.68075036    -0.37200
N776        N  0.18226473  0.54234361  0.68920184    -0.39600
N777        N  0.27136495  0.51468085  0.59444099    -0.39400
N778        N  0.26791955  0.39635255  0.60006958    -0.37000
N779        N  0.33820344  0.40999274  0.80126085    -0.38100
N780        N  0.30630195  0.52839425  0.80417029    -0.39700
C781        C  0.16406837  0.22279816  0.67334883    -0.04600
C782        C  0.17891058  0.19274106  0.64621760     0.09500
C783        C  0.22043840  0.19230516  0.63526219    -0.02000
C784        C  0.24750537  0.22165651  0.65192288     0.03700
C785        C  0.23271667  0.25348199  0.67812144    -0.03900
C786        C  0.19065077  0.25272794  0.68955030     0.03100
C787        C  0.15181117  0.15791479  0.63466104     0.10000
C788        C  0.23530875  0.16094278  0.60720050     0.35800
C789        C  0.17317049  0.28279426  0.71711390     0.39300
C790        C  0.12687668  0.15973295  0.59934464    -0.04300
C791        C  0.09696867  0.12925709  0.59236342     0.02900
C792        C  0.09186095  0.09709051  0.62107124    -0.03900
C793        C  0.11917571  0.09408074  0.65495552    -0.00100
C794        C  0.14883940  0.12446721  0.66165681    -0.02700
C795        C  0.13142278  0.19354238  0.57087120     0.36600
C796        C  0.11737588  0.05958318  0.68307424     0.40200
C797        C  0.07058697  0.13215935  0.55659637     0.39300
C798        C  0.17579559  0.12210103  0.69715262     0.36300
C799        C  0.12101728  0.22255814  0.68481945     0.36900
C800        C  0.29061874  0.21703590  0.64284110     0.40200
N801        N  0.04966554  0.13443906  0.52795296    -0.37900
N802        N  0.13510497  0.22046340  0.54808484    -0.39500
N803        N  0.11604234  0.03226921  0.70567925    -0.37200
N804        N  0.19735942  0.12050547  0.72535532    -0.39600
N805        N  0.24700182  0.13599773  0.58470742    -0.39400
N806        N  0.32434766  0.21127884  0.63362980    -0.37000
N807        N  0.15679557  0.30509357  0.73932941    -0.38100
N808        N  0.08673713  0.22227163  0.69385783    -0.39700
C809        C  0.32021831  0.21507765  0.83568205    -0.04600
C810        C  0.35741170  0.19578823  0.82509312     0.09500
C811        C  0.37439832  0.20320584  0.78623016    -0.02000
C812        C  0.35552838  0.23136744  0.75913443    -0.00300
C813        C  0.32214312  0.25656700  0.77227653    -0.03900
C814        C  0.30256394  0.24516827  0.80979720     0.03100
C815        C  0.37730488  0.16651474  0.85467727     0.10000
C816        C  0.41228017  0.18277840  0.77450430     0.35800
C817        C  0.26375513  0.26234502  0.82274041     0.39300
C818        C  0.37833452  0.12393870  0.84630522    -0.04300
C819        C  0.39232663  0.09632870  0.87650264     0.02900
C820        C  0.40055477  0.11032212  0.91663878    -0.03900
C821        C  0.40110695  0.15281972  0.92463821    -0.00100
C822        C  0.39176831  0.18088305  0.89305765    -0.02700
C823        C  0.36285838  0.10814594  0.80762767     0.36600
C824        C  0.40834405  0.16790061  0.96582722     0.40200
C825        C  0.39871772  0.05355869  0.86608664     0.39300
C826        C  0.39564605  0.22453746  0.90076707     0.36300
C827        C  0.29992469  0.20368719  0.87368343     0.36900
C828        C  0.37208900  0.23435558  0.71819139     0.40200
N829        N  0.40509282  0.01986768  0.85677771    -0.37900
N830        N  0.35046276  0.09546660  0.77681891    -0.39500
N831        N  0.41315482  0.18113869  0.99842496    -0.37200
N832        N  0.39941017  0.25914039  0.90780673    -0.39600
N833        N  0.44249169  0.16659686  0.76513612    -0.39400
N834        N  0.38780701  0.23536822  0.68649359    -0.37000
N835        N  0.23212442  0.27364530  0.83428007    -0.38100
N836        N  0.28388734  0.19461149  0.90396541    -0.39700
C837        C  0.09929053  0.42700786  0.85045088    -0.04600
C838        C  0.11819742  0.39026619  0.83770623     0.09500
C839        C  0.10401938  0.35249290  0.85293929    -0.02000
C840        C  0.07411257  0.35152186  0.88392592    -0.00300
C841        C  0.05823545  0.38878220  0.90068557    -0.03900
C842        C  0.06912946  0.42640985  0.88151322     0.03100
C843        C  0.15607807  0.39062502  0.81203353     0.10000
C844        C  0.12146955  0.31426049  0.83774652     0.35800
C845        C  0.04953747  0.46474369  0.89311876     0.39300
C846        C  0.19363492  0.38020927  0.83058027    -0.04300
C847        C  0.22752472  0.36949967  0.80617749     0.02900
C848        C  0.22463488  0.37039144  0.76291557    -0.03900
C849        C  0.18926183  0.38838075  0.74493897    -0.00100
C850        C  0.15440399  0.39679319  0.76931520    -0.02700
C851        C  0.19671110  0.37876605  0.87507665     0.36600
C852        C  0.18743245  0.39695093  0.70146060     0.40200
C853        C  0.26509011  0.35823605  0.82661114     0.39300
C854        C  0.11615994  0.40918488  0.75020625     0.36300
C855        C  0.11132474  0.46549394  0.83189471     0.36900
C856        C  0.06048557  0.31158574  0.89812360     0.40200
N857        N  0.29365043  0.34972531  0.84581111    -0.37900
N858        N  0.19908605  0.37761430  0.91049825    -0.39500
N859        N  0.18468995  0.40563154  0.66716784    -0.37200
N860        N  0.08561831  0.41905348  0.73497467    -0.39600
N861        N  0.13514568  0.28350036  0.82626793    -0.39400
N862        N  0.04987965  0.27956590  0.90908400    -0.37000
N863        N  0.03398054  0.49545445  0.90211872    -0.38100
N864        N  0.12041227  0.49613154  0.81659241    -0.39700
C865        C  0.67201977  0.29131873  0.54290233    -0.04600
C866        C  0.71085087  0.28249159  0.52628762     0.09500
C867        C  0.74490622  0.28060873  0.55265987    -0.02000
C868        C  0.73965335  0.28430605  0.59564874    -0.00300
C869        C  0.69969115  0.28654820  0.61327614    -0.03900
C870        C  0.66639766  0.29430497  0.58575444     0.03100
C871        C  0.71536691  0.27780947  0.48064249     0.10000
C872        C  0.78537862  0.27387297  0.53548995     0.35800
C873        C  0.62628650  0.30754672  0.59945308     0.39300
C874        C  0.72795102  0.31131124  0.45673215    -0.04300
C875        C  0.72368377  0.31027695  0.41345279     0.02900
C876        C  0.70645146  0.27552003  0.39322177    -0.03900
C877        C  0.69071917  0.24392618  0.41850206    -0.00100
C878        C  0.69912305  0.24308317  0.46091939    -0.02700
C879        C  0.74319338  0.34797631  0.47709008     0.36600
C880        C  0.65664308  0.21927936  0.40487975     0.40200
C881        C  0.73099305  0.34811969  0.39189202     0.39300
C882        C  0.68830850  0.20712479  0.48462887     0.36300
C883        C  0.63718491  0.29768212  0.51580806     0.36900
C884        C  0.77600926  0.28511355  0.62102604     0.40200
N885        N  0.73506232  0.38060996  0.37844445    -0.37900
N886        N  0.75530641  0.37715258  0.49334779    -0.39500
N887        N  0.62760448  0.20036780  0.39758253    -0.37200
N888        N  0.67991752  0.17769901  0.50248626    -0.39600
N889        N  0.81764826  0.26838378  0.52182429    -0.39400
N890        N  0.80631532  0.28471175  0.63941347    -0.37000
N891        N  0.59412254  0.32001901  0.60799990    -0.38100
N892        N  0.60843784  0.30300463  0.49568087    -0.39700
C893        C  0.53830756  0.31440333  0.76091391    -0.04600
C894        C  0.51073718  0.29918029  0.73133929     0.09500
C895        C  0.52569009  0.27536401  0.69841122    -0.02000
C896        C  0.56828283  0.26962533  0.69327135    -0.00300
C897        C  0.59621065  0.28597036  0.72226766    -0.03900
C898        C  0.58039302  0.30553147  0.75778172     0.03100
C899        C  0.46630950  0.31019714  0.73368680     0.10000
C900        C  0.49715661  0.25713796  0.66944665     0.35800
C901        C  0.60640780  0.31618192  0.79209010     0.39300
C902        C  0.44959116  0.33857868  0.70566043    -0.04300
C903        C  0.40756082  0.34880874  0.70752824     0.02900
C904        C  0.38122172  0.32694880  0.73439959    -0.03900
C905        C  0.40084286  0.30979586  0.76924381    -0.00100
C906        C  0.44206511  0.29723238  0.76689367    -0.02700
C907        C  0.47585207  0.35792641  0.67549153     0.36600
C908        C  0.38184301  0.31103107  0.80917492     0.40200
C909        C  0.39461991  0.38664427  0.68817848     0.39300
C910        C  0.45923056  0.27117734  0.79871073     0.36300
C911        C  0.52360865  0.34069485  0.79388577     0.36900
C912        C  0.58239559  0.24583903  0.65853902     0.40200
N913        N  0.38517963  0.41730202  0.67288597    -0.37900
N914        N  0.49689804  0.37305674  0.65136342    -0.39500
N915        N  0.36884925  0.31188080  0.84212075    -0.37200
N916        N  0.47283116  0.25041567  0.82413220    -0.39600
N917        N  0.47471075  0.24243730  0.64617615    -0.39400
N918        N  0.59149646  0.22689473  0.62987457    -0.37000
N919        N  0.62440339  0.32424011  0.82160168    -0.38100
N920        N  0.51182256  0.36159585  0.82012902    -0.39700
C921        C  0.63678168  0.09146924  0.84534964    -0.04600
C922        C  0.61414590  0.12829582  0.84940900     0.09500
C923        C  0.58518126  0.13238570  0.88129641    -0.02000
C924        C  0.58178361  0.10146996  0.91134796    -0.00300
C925        C  0.60653896  0.06583411  0.90870851    -0.03900
C926        C  0.63207689  0.05989905  0.87426124     0.03100
C927        C  0.62387752  0.16386683  0.82227032     0.10000
C928        C  0.55995110  0.16904561  0.88384883     0.35800
C929        C  0.65341899  0.02110906  0.86846135     0.39300
C930        C  0.61425190  0.16238236  0.78019405    -0.04300
C931        C  0.63075017  0.19175957  0.75331697     0.02900
C932        C  0.65155956  0.22655089  0.76883195    -0.03900
C933        C  0.66154336  0.22768611  0.81112189    -0.00100
C934        C  0.64816343  0.19622958  0.83755134    -0.02700
C935        C  0.58920621  0.12920495  0.76424317     0.36600
C936        C  0.68791022  0.25933063  0.82754956     0.40200
C937        C  0.63356532  0.18123663  0.71032858     0.39300
C938        C  0.66112396  0.19596584  0.88021978     0.36300
C939        C  0.66639829  0.08672603  0.81248708     0.36900
C940        C  0.55470006  0.10756975  0.94611640     0.40200
N941        N  0.63720986  0.17001854  0.67684529    -0.37900
N942        N  0.56919146  0.10275245  0.75161669    -0.39500
N943        N  0.70893645  0.28379798  0.84225342    -0.37200
N944        N  0.67157564  0.19548664  0.91417847    -0.39600
N945        N  0.53976777  0.19826085  0.88587035    -0.39400
N946        N  0.53317884  0.11244128  0.97391068    -0.37000
N947        N  0.67008916  0.99003010  0.86379624    -0.38100
N948        N  0.69000709  0.08286071  0.78629464    -0.39700
C949        C  0.79673955  0.16795245  0.68255599    -0.04600
C950        C  0.80323898  0.16486931  0.63990821     0.09500
C951        C  0.77183087  0.17836742  0.61325964    -0.02000
C952        C  0.73726307  0.19895431  0.62949998    -0.00300
C953        C  0.73781034  0.21330383  0.67056644    -0.03900
C954        C  0.76235321  0.18946179  0.69772316     0.03100
C955        C  0.84013710  0.14212655  0.62434210     0.10000
C956        C  0.77498362  0.17135736  0.56943935     0.35800
C957        C  0.74823838  0.17892354  0.73843632     0.39300
C958        C  0.83612898  0.10166363  0.60908110    -0.04300
C959        C  0.87131332  0.07808077  0.60017181     0.02900
C960        C  0.91056252  0.09353988  0.60947734    -0.03900
C961        C  0.91484585  0.13442437  0.62302905    -0.00100
C962        C  0.87972474  0.15900728  0.62953553    -0.02700
C963        C  0.79591708  0.08317579  0.60529581     0.36600
C964        C  0.95541799  0.15088412  0.63077209     0.40200
C965        C  0.86705428  0.03723239  0.58288465     0.39300
C966        C  0.88430383  0.20114885  0.64316937     0.36300
C967        C  0.82486819  0.14814701  0.71094003     0.36900
C968        C  0.69914873  0.19791265  0.60687779     0.40200
N969        N  0.86355487  0.00486397  0.56862284    -0.37900
N970        N  0.76382964  0.06840534  0.60244079    -0.39500
N971        N  0.98782778  0.16392552  0.63686073    -0.37200
N972        N  0.88832524  0.23474179  0.65403163    -0.39600
N973        N  0.77772063  0.16577892  0.53445802    -0.39400
N974        N  0.66847910  0.19608959  0.58912309    -0.37000
N975        N  0.73738346  0.16950887  0.77086704    -0.38100
N976        N  0.84743825  0.13260827  0.73357127    -0.39700
C977        C  0.76394714  0.37278517  0.82650880    -0.04600
C978        C  0.80261628  0.35443920  0.83078372     0.09500
C979        C  0.81519898  0.32363953  0.80334282    -0.02000
C980        C  0.78878005  0.31040706  0.77185680    -0.00300
C981        C  0.74900981  0.32779312  0.76749848    -0.03900
C982        C  0.73698522  0.35952776  0.79535329     0.03100
C983        C  0.83005427  0.36627689  0.86524682     0.10000
C984        C  0.85570582  0.30544156  0.80774552     0.35800
C985        C  0.69669095  0.37818249  0.79421006     0.39300
C986        C  0.82840747  0.34424942  0.90234604    -0.04300
C987        C  0.85830978  0.35083060  0.93274260     0.02900
C988        C  0.88973256  0.37982898  0.92622352    -0.03900
C989        C  0.88993294  0.40351485  0.88989318    -0.00100
C990        C  0.86000019  0.39673395  0.85946432    -0.02700
C991        C  0.79661838  0.31388933  0.90865464     0.36600
C992        C  0.92261417  0.43253189  0.88219434     0.40200
C993        C  0.85709149  0.32719170  0.97043993     0.39300
C994        C  0.86088342  0.41980133  0.82142391     0.36300
C995        C  0.75171251  0.40484689  0.85507190     0.36900
C996        C  0.80424568  0.27998769  0.74338621     0.40200
N997        N  0.85622001  0.30818695  0.00038902    -0.37900
N998        N  0.77130253  0.28968648  0.91389141    -0.39500
N999        N  0.94866497  0.45557611  0.87558412    -0.37200
N1000       N  0.86152675  0.43812685  0.79105073    -0.39600
N1001       N  0.88797762  0.29101327  0.81127732    -0.39400
N1002       N  0.81901260  0.25590102  0.72188505    -0.37000
N1003       N  0.66552840  0.39523724  0.79486134    -0.38100
N1004       N  0.74209089  0.43032847  0.87794235    -0.39700
C1005       C  0.69269749  0.70341235  0.54109662    -0.04600
C1006       C  0.72999457  0.69898229  0.52003983     0.09500
C1007       C  0.76689790  0.69623279  0.54227134    -0.02000
C1008       C  0.76656105  0.69728088  0.58563351    -0.00300
C1009       C  0.72907850  0.70239159  0.60736929    -0.03900
C1010       C  0.69205252  0.70505964  0.58434190     0.03100
C1011       C  0.73001608  0.69676715  0.47415772     0.10000
C1012       C  0.80525955  0.69156717  0.52026420     0.35800
C1013       C  0.65271688  0.71079839  0.60402192     0.39300
C1014       C  0.72605050  0.73286995  0.45095179    -0.04300
C1015       C  0.72381217  0.73087685  0.40776041     0.02900
C1016       C  0.72741504  0.69256102  0.38693548    -0.03900
C1017       C  0.72945853  0.65620374  0.41086504    -0.00100
C1018       C  0.73116614  0.65846233  0.45413782    -0.02700
C1019       C  0.72376968  0.77223004  0.47188569     0.36600
C1020       C  0.72967360  0.61602343  0.39186128     0.40200
C1021       C  0.71584523  0.76858598  0.38568792     0.39300
C1022       C  0.73392470  0.62119139  0.47834130     0.36300
C1023       C  0.65471021  0.70643212  0.51789594     0.36900
C1024       C  0.80464570  0.68944787  0.60719521     0.40200
N1025       N  0.70993293  0.79981068  0.36988756    -0.37900
N1026       N  0.72181917  0.80347197  0.48876252    -0.39500
N1027       N  0.72902324  0.58300882  0.37877729    -0.37200
N1028       N  0.73621562  0.59146460  0.49759292    -0.39600
N1029       N  0.83577701  0.68775280  0.50261296    -0.39400
N1030       N  0.83572661  0.68302700  0.62312177    -0.37000
N1031       N  0.62010571  0.71548769  0.61706539    -0.38100
N1032       N  0.62451599  0.70902225  0.49936662    -0.39700
C1033       C  0.56213617  0.67483316  0.71125894    -0.04600
C1034       C  0.54392563  0.71401178  0.71222723     0.09500
C1035       C  0.56820744  0.74926418  0.70935806    -0.02000
C1036       C  0.61101889  0.74551892  0.70563450    -0.00300
C1037       C  0.63019281  0.70619527  0.70739151    -0.03900
C1038       C  0.60502271  0.67078544  0.70907353     0.03100
C1039       C  0.49854778  0.71771147  0.71204316     0.10000
C1040       C  0.54864990  0.78937786  0.70902694     0.35800
C1041       C  0.62226487  0.62979259  0.70948154     0.39300
C1042       C  0.47677202  0.71924500  0.74902569    -0.04300
C1043       C  0.43361104  0.71782452  0.74873010     0.02900
C1044       C  0.41137050  0.71843187  0.71095489    -0.03900
C1045       C  0.43456665  0.71050362  0.67441593    -0.00100
C1046       C  0.47751839  0.71358217  0.67481857    -0.02700
C1047       C  0.49904503  0.72128974  0.78757482     0.36600
C1048       C  0.41745072  0.69163621  0.63797512     0.40200
C1049       C  0.41358373  0.70889288  0.78729503     0.39300
C1050       C  0.50059089  0.71058072  0.63672762     0.36300
C1051       C  0.53635929  0.63854159  0.71194088     0.36900
C1052       C  0.63422223  0.78230470  0.69705067     0.40200
N1053       N  0.39969551  0.70132100  0.81901874    -0.37900
N1054       N  0.51673115  0.72305396  0.81832955    -0.39500
N1055       N  0.40613851  0.67552528  0.60831888    -0.37200
N1056       N  0.51889550  0.70825527  0.60642497    -0.39600
N1057       N  0.53266123  0.82114040  0.70874986    -0.39400
N1058       N  0.65100636  0.81276684  0.69034151    -0.37000
N1059       N  0.63385524  0.59621542  0.70962271    -0.38100
N1060       N  0.51573939  0.60971018  0.71218352    -0.39700
C1061       C  0.72331392  0.53569888  0.66747227    -0.04600
C1062       C  0.71765661  0.51412963  0.70424955     0.09500
C1063       C  0.71681095  0.53567337  0.74169887    -0.02000
C1064       C  0.72080250  0.57890331  0.74243144    -0.00300
C1065       C  0.72658626  0.60125463  0.70541332    -0.03900
C1066       C  0.72738033  0.57883202  0.66782229     0.03100
C1067       C  0.71205193  0.46848303  0.70330780     0.10000
C1068       C  0.71119226  0.51308758  0.77959292     0.35800
C1069       C  0.73277374  0.59890770  0.62870370     0.39300
C1070       C  0.74634592  0.44239624  0.70163296    -0.04300
C1071       C  0.74125839  0.39940686  0.69994520     0.02900
C1072       C  0.70165003  0.38152962  0.70352806    -0.03900
C1073       C  0.66706773  0.40847314  0.70309951    -0.00100
C1074       C  0.67247977  0.45153072  0.70244913    -0.02700
C1075       C  0.78713927  0.46011039  0.70166829     0.36600
C1076       C  0.62550771  0.39314982  0.70524555     0.40200
C1077       C  0.77737606  0.37456787  0.69290851     0.39300
C1078       C  0.63714299  0.47872701  0.70118114     0.36300
C1079       C  0.72496804  0.51311783  0.62897742     0.36900
C1080       C  0.71580157  0.59974738  0.78137455     0.40200
N1081       N  0.80772410  0.35699961  0.68743466    -0.37900
N1082       N  0.81957036  0.47438082  0.70180924    -0.39500
N1083       N  0.59168819  0.38265708  0.70618454    -0.37200
N1084       N  0.60894538  0.50033781  0.69994620    -0.39600
N1085       N  0.70667553  0.49499774  0.80975060    -0.39400
N1086       N  0.71171502  0.61465625  0.81336640    -0.37000
N1087       N  0.73663601  0.61184280  0.59595215    -0.38100
N1088       N  0.72647852  0.49504969  0.59838904    -0.39700
C1089       C  0.64034427  0.76282246  0.82813498    -0.04600
C1090       C  0.65303547  0.80393177  0.83078251     0.09500
C1091       C  0.68234512  0.81884944  0.80295746    -0.02000
C1092       C  0.69883043  0.79293459  0.77233526    -0.00300
C1093       C  0.68537914  0.75170212  0.76838647    -0.03900
C1094       C  0.65653336  0.73668883  0.79747819     0.03100
C1095       C  0.63803361  0.83119216  0.86468689     0.10000
C1096       C  0.69573915  0.86122238  0.80612597     0.35800
C1097       C  0.64532740  0.69372220  0.79844126     0.39300
C1098       C  0.65642220  0.82878654  0.90382813    -0.04300
C1099       C  0.64732429  0.85854620  0.93392789     0.02900
C1100       C  0.62045742  0.89144627  0.92475665    -0.03900
C1101       C  0.59991769  0.89226778  0.88656225    -0.00100
C1102       C  0.60838567  0.86186614  0.85676647    -0.02700
C1103       C  0.68588940  0.79649409  0.91258053     0.36600
C1104       C  0.57238082  0.92591938  0.87676889     0.40200
C1105       C  0.66589769  0.85547687  0.97434959     0.39300
C1106       C  0.58764332  0.86283715  0.81741219     0.36300
C1107       C  0.61129170  0.74721347  0.85788716     0.36900
C1108       C  0.72886582  0.80992050  0.74461102     0.40200
N1109       N  0.68058062  0.85300272  0.00662156    -0.37900
N1110       N  0.70932742  0.77067172  0.91952251    -0.39500
N1111       N  0.55062742  0.95293599  0.86893033    -0.37200
N1112       N  0.57096110  0.86363951  0.78606049    -0.39600
N1113       N  0.70619150  0.89504440  0.80867793    -0.39400
N1114       N  0.75281493  0.82520640  0.72355448    -0.37000
N1115       N  0.63521627  0.65979017  0.80046819    -0.38100
N1116       N  0.58838841  0.73483744  0.88189786    -0.39700
C1117       C  0.85107554  0.61499819  0.76974319    -0.04600
C1118       C  0.85318789  0.62930179  0.81046401     0.09500
C1119       C  0.82237795  0.65551855  0.82545859    -0.02000
C1120       C  0.79025010  0.66872805  0.79962718    -0.00300
C1121       C  0.78763155  0.65484251  0.75825191    -0.03900
C1122       C  0.81857685  0.62756553  0.74367946     0.03100
C1123       C  0.88896867  0.61925283  0.83759946     0.10000
C1124       C  0.82419037  0.66941319  0.86788348     0.35800
C1125       C  0.81965504  0.61491817  0.70106920     0.39300
C1126       C  0.92103761  0.64787178  0.84194923    -0.04300
C1127       C  0.95089482  0.64269734  0.87286227     0.02900
C1128       C  0.94844832  0.60922639  0.90041727    -0.03900
C1129       C  0.91757178  0.57927572  0.89445052    -0.00100
C1130       C  0.88816260  0.58418901  0.86288968    -0.02700
C1131       C  0.92236136  0.68365503  0.81555614     0.36600
C1132       C  0.91412922  0.54488543  0.92241503     0.40200
C1133       C  0.98413687  0.67205065  0.87620113     0.39300
C1134       C  0.85593575  0.55409069  0.85742974     0.36300
C1135       C  0.88335878  0.58845502  0.75433563     0.36900
C1136       C  0.76023905  0.69641143  0.81713652     0.40200
N1137       N  0.01063785  0.69544500  0.87884078    -0.37900
N1138       N  0.92353174  0.71236815  0.79475978    -0.39500
N1139       N  0.91128167  0.51757978  0.94487889    -0.37200
N1140       N  0.83026664  0.53006077  0.85290404    -0.39600
N1141       N  0.82567933  0.68040156  0.90165632    -0.39400
N1142       N  0.73825034  0.71845279  0.83420639    -0.37000
N1143       N  0.82170595  0.60401588  0.66731715    -0.38100
N1144       N  0.90922363  0.56736352  0.74210707    -0.39700
C1145       C  0.79340843  0.82125397  0.61981404    -0.04600
C1146       C  0.83363184  0.82396266  0.63496779     0.09500
C1147       C  0.84774444  0.79514480  0.66379539    -0.02000
C1148       C  0.82181992  0.76342653  0.67742288    -0.00300
C1149       C  0.78070292  0.76069378  0.66313152    -0.03900
C1150       C  0.76658151  0.79085737  0.63475991     0.03100
C1151       C  0.85996299  0.85975807  0.62415032     0.10000
C1152       C  0.88908778  0.79874388  0.68006040     0.35800
C1153       C  0.72391402  0.79348582  0.62280129     0.39300
C1154       C  0.85538311  0.89676703  0.64614493    -0.04300
C1155       C  0.88319910  0.92903983  0.64019144     0.02900
C1156       C  0.91614683  0.92447458  0.61227493    -0.03900
C1157       C  0.91901336  0.88843584  0.58812976    -0.00100
C1158       C  0.89103969  0.85601592  0.59429557    -0.02700
C1159       C  0.82271983  0.90120979  0.67601780     0.36600
C1160       C  0.95182760  0.88372312  0.55852368     0.40200
C1161       C  0.87767577  0.96706379  0.66297660     0.39300
C1162       C  0.89487969  0.81824921  0.57095597     0.36300
C1163       C  0.77944357  0.85064306  0.58936132     0.36900
C1164       C  0.83874043  0.73371415  0.70572499     0.40200
N1165       N  0.87321311  0.99733991  0.68111722    -0.37900
N1166       N  0.79677060  0.90513147  0.69986984    -0.39500
N1167       N  0.97797593  0.87999240  0.53484274    -0.37200
N1168       N  0.89790097  0.78802926  0.55244508    -0.39600
N1169       N  0.92198823  0.80175025  0.69303970    -0.39400
N1170       N  0.85447831  0.71131873  0.72829953    -0.37000
N1171       N  0.69033591  0.79729526  0.61196307    -0.38100
N1172       N  0.76850355  0.87402578  0.56496823    -0.39700
loop_ 
_geom_bond_atom_site_label_1 
_geom_bond_atom_site_label_2 
_geom_bond_distance 
_geom_bond_site_symmetry_2 
_ccdc_geom_bond_type 
C1            H2   1.108       .  S
C1            C7   1.549       .  S
C1            C6   1.547       .  S
C1            C5   1.543       .  S
C3            H4   1.108       .  S
C3            C9   1.545       .  S
C3            C8   1.554       .  S
C3           C10   1.550       .  S
C5            C8   1.382       .  D
C5         C1009   1.513       .  S
C6            C9   1.377       .  D
C6         C1037   1.505       .  S
C7           C10   1.385       .  D
C7         C1065   1.517       .  S
C8         C1149   1.515       .  S
C9         C1093   1.516       .  S
C10        C1121   1.515       .  S
C11          H12   1.093       .  S
C11          C17   1.563       .  S
C11          C16   1.556       .  S
C11          C15   1.516       .  S
C13          H14   1.090       .  S
C13          C19   1.532       .  S
C13          C18   1.565       .  S
C13          C20   1.552       .  S
C15          C18   1.368       .  D
C15         C932   1.502       .  S
C16          C19   1.376       .  D
C16         C981   1.511       .  S
C17          C20   1.406       .  D
C17         C953   1.544       .  S
C18         C897   1.499       .  S
C19        C1072   1.523       .  S
C20         C869   1.532       .  S
C21          H22   1.093       .  S
C21          C27   1.519       .  S
C21          C26   1.568       .  S
C21          C25   1.552       .  S
C23          H24   1.095       .  S
C23          C29   1.548       .  S
C23          C28   1.532       .  S
C23          C30   1.566       .  S
C25          C28   1.374       .  D
C25         C736   1.509       .  S
C26          C29   1.403       .  D
C26         C904   1.539       .  S
C27          C30   1.371       .  D
C27         C757   1.502       .  S
C28         C785   1.516       .  S
C29         C813   1.536       .  S
C30         C848   1.502       .  S
C31          H32   1.074       .  S
C31          C37   1.557       .  S
C31          C36   1.550       .  S
C31          C35   1.536       .  S
C33          H34   1.086       .  S
C33          C39   1.531       .  S
C33          C38   1.567       .  S
C33          C40   1.553       .  S
C35          C38   1.398       .  D
C35         C701   1.522       .  S
C36          C39   1.367       .  D
C36         C645   1.509       .  S
C37          C40   1.395       .  D
C37         C680   1.542       .  S
C38        C1044   1.530       .  S
C39         C764   1.514       .  S
C40         C624   1.517       .  S
C41          H42   1.105       .  S
C41          C47   1.556       .  S
C41          C46   1.551       .  S
C41          C45   1.541       .  S
C43          H44   1.108       .  S
C43          C49   1.542       .  S
C43          C48   1.552       .  S
C43          C50   1.550       .  S
C45          C48   1.380       .  D
C45         C617   1.521       .  S
C46          C49   1.376       .  D
C46         C505   1.504       .  S
C47          C50   1.393       .  D
C47         C484   1.519       .  S
C48         C589   1.504       .  S
C49         C568   1.516       .  S
C50         C533   1.526       .  S
C51          H52   1.107       .  S
C51          C57   1.543       .  S
C51          C56   1.544       .  S
C51          C55   1.558       .  S
C53          H54   1.106       .  S
C53          C59   1.539       .  S
C53          C58   1.545       .  S
C53          C60   1.558       .  S
C55          C58   1.392       .  D
C55         C428   1.505       .  S
C56          C59   1.369       .  D
C56         C393   1.514       .  S
C57          C60   1.383       .  D
C57         C449   1.523       .  S
C58         C512   1.532       .  S
C59         C372   1.493       .  S
C60        C1016   1.512       .  S
C61          H62   1.100       .  S
C61          C67   1.554       .  S
C61          C66   1.537       .  S
C61          C65   1.568       .  S
C63          H64   1.096       .  S
C63          C69   1.557       .  S
C63          C68   1.530       .  S
C63          C70   1.551       .  S
C65          C68   1.400       .  D
C65         C309   1.525       .  S
C66          C69   1.365       .  D
C66         C281   1.511       .  S
C67          C70   1.392       .  D
C67         C337   1.532       .  S
C68         C253   1.522       .  S
C69         C477   1.502       .  S
C70         C729   1.520       .  S
C71          H72   1.102       .  S
C71          C77   1.559       .  S
C71          C76   1.549       .  S
C71          C75   1.553       .  S
C73          H74   1.105       .  S
C73          C79   1.547       .  S
C73          C78   1.540       .  S
C73          C80   1.545       .  S
C75          C78   1.391       .  D
C75         C876   1.523       .  S
C76          C79   1.373       .  D
C76         C260   1.514       .  S
C77          C80   1.399       .  D
C77         C365   1.539       .  S
C78         C225   1.516       .  S
C79         C176   1.498       .  S
C80         C204   1.512       .  S
O81          V89   1.908   1_465  S
O81          C91   1.267       .  A
O82          V89   1.909       .  S
O82          C92   1.266       .  A
O83          V89   1.903   1_565  S
O83          C93   1.264       .  A
O84          V89   1.902   1_455  S
O84          C94   1.265       .  A
O85          V90   1.900   1_455  S
O85          C94   1.265       .  A
O86          V90   1.899   1_565  S
O86          C93   1.265       .  A
O87          V90   1.882       .  S
O87          C92   1.261       .  A
O88          V90   1.879   1_465  S
O88          C91   1.259       .  A
V89          V90   2.083       .  T
C91         C596   1.502       .  S
C92         C232   1.477       .  S
C93         C456   1.487       .  S
C94         C344   1.493       .  S
O95         V103   1.896   1_565  S
O95         C105   1.263       .  A
O96         V103   1.895   1_655  S
O96         C106   1.263       .  A
O97         V103   1.881   1_665  S
O97         C107   1.261       .  A
O98         V103   1.879       .  S
O98         C108   1.260       .  A
O99         V104   1.909       .  S
O99         C108   1.267       .  A
O100        V104   1.911   1_665  S
O100        C107   1.267       .  A
O101        V104   1.905   1_655  S
O101        C106   1.264       .  A
O102        V104   1.902   1_565  S
O102        C105   1.263       .  A
V103        V104   2.088       .  T
C105        C673   1.476       .  S
C106        C960   1.477       .  S
C107       C1156   1.485       .  S
C108        C792   1.487       .  S
O109        V117   1.907   1_566  S
O109        C119   1.266       .  A
O110        V117   1.908       .  S
O110        C120   1.264       .  A
O111        V117   1.914   1_565  S
O111        C121   1.269       .  A
O112        V117   1.913   1_556  S
O112        C122   1.266       .  A
O113        V118   1.892   1_556  S
O113        C122   1.262       .  A
O114        V118   1.890   1_565  S
O114        C121   1.262       .  A
O115        V118   1.888       .  S
O115        C120   1.263       .  A
O116        V118   1.886   1_566  S
O116        C119   1.262       .  A
V117        V118   2.082       .  T
C119        C708   1.494       .  S
C120        C316   1.487       .  S
C121        C561   1.514       .  S
C122        C820   1.479       .  S
O123        V131   1.880       .  S
O123        C133   1.261       .  A
O124        V131   1.882   1_456  S
O124        C134   1.261       .  A
O125        V131   1.887   1_455  S
O125        C135   1.263       .  A
O126        V131   1.887   1_556  S
O126        C136   1.262       .  A
O127        V132   1.900   1_556  S
O127        C136   1.264       .  A
O128        V132   1.904   1_455  S
O128        C135   1.265       .  A
O129        V132   1.907   1_456  S
O129        C134   1.267       .  A
O130        V132   1.911       .  S
O130        C133   1.267       .  A
V131        V132   2.082       .  T
C133        C197   1.486       .  S
C134        C841   1.504       .  S
C135        C288   1.499       .  S
C136        C988   1.476       .  S
O137        V145   1.892       .  S
O137        C147   1.262       .  A
O138        V145   1.899   1_546  S
O138        C148   1.263       .  A
O139        V145   1.909   1_556  S
O139        C149   1.266       .  A
O140        V145   1.906   1_545  S
O140        C150   1.267       .  A
O141        V146   1.887   1_545  S
O141        C150   1.261       .  A
O142        V146   1.888   1_556  S
O142        C149   1.262       .  A
O143        V146   1.890   1_546  S
O143        C148   1.264       .  A
O144        V146   1.889       .  S
O144        C147   1.262       .  A
V145        V146   2.084       .  T
C147        C421   1.473       .  S
C148        C925   1.480       .  S
C149       C1100   1.483       .  S
C150        C169   1.508       .  S
O151        V159   1.895   1_656  S
O151        C161   1.264       .  A
O152        V159   1.895       .  S
O152        C162   1.263       .  A
O153        V159   1.884   1_556  S
O153        C163   1.261       .  A
O154        V159   1.883   1_655  S
O154        C164   1.262       .  A
O155        V160   1.922   1_654  S
O155        C164   1.270       .  A
O156        V160   1.919       .  S
O156        C163   1.270       .  A
O157        V160   1.907   1_554  S
O157        C162   1.264       .  A
O158        V160   1.907   1_655  S
O158        C161   1.266       .  A
V159        V160   2.084   1_554  T
C161       C1128   1.492       .  S
C162        C540   1.478       .  S
C163        C652   1.508       .  S
C164        C400   1.495       .  S
C165        C166   1.407       .  A
C165        C170   1.409       .  A
C165        C183   1.453       .  S
C166        C171   1.496       .  S
C166        C167   1.407       .  A
C167        C168   1.412       .  A
C167        C172   1.451       .  S
C168        C169   1.425       .  A
C168        C184   1.447       .  S
C169        C170   1.427       .  A
C170        C173   1.453       .  S
C171        C174   1.410       .  A
C171        C178   1.410       .  A
C172        N189   1.157       .  T
C173        N191   1.158       .  T
C174        C175   1.408       .  A
C174        C179   1.452       .  S
C175        C176   1.412       .  A
C175        C181   1.449       .  S
C176        C177   1.410       .  A
C177        C178   1.410       .  A
C177        C180   1.443       .  S
C178        C182   1.450       .  S
C179        N186   1.157       .  T
C180        N187   1.156       .  T
C181        N185   1.158       .  T
C182        N188   1.157       .  T
C183        N192   1.157       .  T
C184        N190   1.156       .  T
C193        C194   1.412       .  A
C193        C198   1.406       .  A
C193        C211   1.453       .  S
C194        C199   1.497       .  S
C194        C195   1.415       .  A
C195        C196   1.413       .  A
C195        C200   1.450       .  S
C196        C197   1.413       .  A
C196        C212   1.451       .  S
C197        C198   1.416       .  A
C198        C201   1.453       .  S
C199        C202   1.413       .  A
C199        C206   1.409       .  A
C200        N217   1.157       .  T
C201        N219   1.157       .  T
C202        C203   1.412       .  A
C202        C207   1.449       .  S
C203        C204   1.410       .  A
C203        C209   1.454       .  S
C204        C205   1.415       .  A
C205        C206   1.408       .  A
C205        C208   1.442       .  S
C206        C210   1.453       .  S
C207        N214   1.157       .  T
C208        N215   1.156       .  T
C209        N213   1.158       .  T
C210        N216   1.157       .  T
C211        N220   1.157       .  T
C212        N218   1.157       .  T
C221        C222   1.411       .  A
C221        C226   1.412       .  A
C221        C239   1.454       .  S
C222        C227   1.493       .  S
C222        C223   1.406       .  A
C223        C224   1.405       .  A
C223        C228   1.449       .  S
C224        C225   1.406       .  A
C224        C240   1.443       .  S
C225        C226   1.419       .  A
C226        C229   1.444       .  S
C227        C230   1.411       .  A
C227        C234   1.413       .  A
C228        N245   1.157       .  T
C229        N247   1.157       .  T
C230        C231   1.411       .  A
C230        C235   1.450       .  S
C231        C232   1.412       .  A
C231        C237   1.450       .  S
C232        C233   1.412       .  A
C233        C234   1.406       .  A
C233        C236   1.453       .  S
C234        C238   1.452       .  S
C235        N242   1.157       .  T
C236        N243   1.157   1_545  T
C237        N241   1.157       .  T
C238        N244   1.157       .  T
C239        N248   1.157       .  T
C240        N246   1.157       .  T
C249        C250   1.406       .  A
C249        C254   1.406       .  A
C249        C267   1.449       .  S
C250        C255   1.495       .  S
C250        C251   1.411       .  A
C251        C252   1.412       .  A
C251        C256   1.454       .  S
C252        C253   1.422       .  A
C252        C268   1.444       .  S
C253        C254   1.408       .  A
C254        C257   1.444       .  S
C255        C258   1.405       .  A
C255        C262   1.410       .  A
C256        N273   1.157       .  T
C257        N275   1.156       .  T
C258        C259   1.405       .  A
C258        C263   1.451       .  S
C259        C260   1.415       .  A
C259        C265   1.443       .  S
C260        C261   1.419       .  A
C261        C262   1.413       .  A
C261        C264   1.441       .  S
C262        C266   1.453       .  S
C263        N270   1.157       .  T
C264        N271   1.155       .  T
C265        N269   1.157       .  T
C266        N272   1.157       .  T
C267        N276   1.157       .  T
C268        N274   1.158       .  T
C277        C278   1.404       .  A
C277        C282   1.412       .  A
C277        C295   1.453       .  S
C278        C283   1.494       .  S
C278        C279   1.404       .  A
C279        C280   1.412       .  A
C279        C284   1.453       .  S
C280        C281   1.419       .  A
C280        C296   1.443       .  S
C281        C282   1.423       .  A
C282        C285   1.444       .  S
C283        C286   1.409       .  A
C283        C290   1.407       .  A
C284        N301   1.157       .  T
C285        N303   1.157       .  T
C286        C287   1.406       .  A
C286        C291   1.451       .  S
C287        C288   1.420       .  A
C287        C293   1.454       .  S
C288        C289   1.423       .  A
C289        C290   1.414       .  A
C289        C292   1.449       .  S
C290        C294   1.451       .  S
C291        N298   1.156       .  T
C292        N299   1.157       .  T
C293        N297   1.158       .  T
C294        N300   1.157       .  T
C295        N304   1.157       .  T
C296        N302   1.155       .  T
C305        C306   1.405       .  A
C305        C310   1.411       .  A
C305        C323   1.452       .  S
C306        C311   1.493       .  S
C306        C307   1.403       .  A
C307        C308   1.410       .  A
C307        C312   1.454       .  S
C308        C309   1.424       .  A
C308        C324   1.441       .  S
C309        C310   1.418       .  A
C310        C313   1.443       .  S
C311        C314   1.410       .  A
C311        C318   1.409       .  A
C312        N329   1.157       .  T
C313        N331   1.157       .  T
C314        C315   1.403       .  A
C314        C319   1.453       .  S
C315        C316   1.414       .  A
C315        C321   1.451       .  S
C316        C317   1.416       .  A
C317        C318   1.415       .  A
C317        C320   1.448       .  S
C318        C322   1.449       .  S
C319        N326   1.157       .  T
C320        N327   1.157       .  T
C321        N325   1.157       .  T
C322        N328   1.157       .  T
C323        N332   1.157       .  T
C324        N330   1.156       .  T
C333        C334   1.403       .  A
C333        C338   1.417       .  A
C333        C351   1.452       .  S
C334        C339   1.498       .  S
C334        C335   1.402       .  A
C335        C336   1.411       .  A
C335        C340   1.455       .  S
C336        C337   1.431       .  A
C336        C352   1.447       .  S
C337        C338   1.432       .  A
C338        C341   1.448       .  S
C339        C342   1.410       .  A
C339        C346   1.410       .  A
C340        N357   1.157       .  T
C341        N359   1.157       .  T
C342        C343   1.412       .  A
C342        C347   1.451       .  S
C343        C344   1.417       .  A
C343        C349   1.451       .  S
C344        C345   1.419       .  A
C345        C346   1.412       .  A
C345        C348   1.451       .  S
C346        C350   1.451       .  S
C347        N354   1.157       .  T
C348        N355   1.157       .  T
C349        N353   1.157   1_455  T
C350        N356   1.157       .  T
C351        N360   1.157       .  T
C352        N358   1.156       .  T
C361        C362   1.403       .  A
C361        C366   1.400       .  A
C361        C379   1.450       .  S
C362        C367   1.500       .  S
C362        C363   1.410       .  A
C363        C364   1.414       .  A
C363        C368   1.455       .  S
C364        C365   1.436       .  A
C364        C380   1.444       .  S
C365        C366   1.423       .  A
C366        C369   1.442       .  S
C367        C370   1.409       .  A
C367        C374   1.416       .  A
C368        N385   1.157       .  T
C369        N387   1.158       .  T
C370        C371   1.406       .  A
C370        C375   1.453       .  S
C371        C372   1.415       .  A
C371        C377   1.445       .  S
C372        C373   1.411       .  A
C373        C374   1.407       .  A
C373        C376   1.448       .  S
C374        C378   1.451       .  S
C375        N382   1.157       .  T
C376        N383   1.156       .  T
C377        N381   1.156       .  T
C378        N384   1.157       .  T
C379        N388   1.157       .  T
C380        N386   1.157       .  T
C389        C390   1.409       .  A
C389        C394   1.414       .  A
C389        C407   1.452       .  S
C390        C395   1.502       .  S
C390        C391   1.407       .  A
C391        C392   1.414       .  A
C391        C396   1.452       .  S
C392        C393   1.422       .  A
C392        C408   1.446       .  S
C393        C394   1.418       .  A
C394        C397   1.446       .  S
C395        C398   1.412       .  A
C395        C402   1.410       .  A
C396        N413   1.157       .  T
C397        N415   1.156       .  T
C398        C399   1.416       .  A
C398        C403   1.449       .  S
C399        C400   1.415       .  A
C399        C405   1.448       .  S
C400        C401   1.418       .  A
C401        C402   1.409       .  A
C401        C404   1.453       .  S
C402        C406   1.451       .  S
C403        N410   1.157       .  T
C404        N411   1.158       .  T
C405        N409   1.157       .  T
C406        N412   1.157       .  T
C407        N416   1.157       .  T
C408        N414   1.156       .  T
C417        C418   1.410       .  A
C417        C422   1.406       .  A
C417        C435   1.451       .  S
C418        C423   1.484       .  S
C418        C419   1.408       .  A
C419        C420   1.405       .  A
C419        C424   1.452       .  S
C420        C421   1.414       .  A
C420        C436   1.451       .  S
C421        C422   1.412       .  A
C422        C425   1.452       .  S
C423        C426   1.403       .  A
C423        C430   1.404       .  A
C424        N441   1.157       .  T
C425        N443   1.157       .  T
C426        C427   1.404       .  A
C426        C431   1.455       .  S
C427        C428   1.424       .  A
C427        C433   1.447       .  S
C428        C429   1.426       .  A
C429        C430   1.409       .  A
C429        C432   1.449       .  S
C430        C434   1.451       .  S
C431        N438   1.157       .  T
C432        N439   1.157       .  T
C433        N437   1.156       .  T
C434        N440   1.157       .  T
C435        N444   1.157       .  T
C436        N442   1.157       .  T
C445        C446   1.404       .  A
C445        C450   1.417       .  A
C445        C463   1.451       .  S
C446        C451   1.496       .  S
C446        C447   1.403       .  A
C447        C448   1.409       .  A
C447        C452   1.456       .  S
C448        C449   1.426       .  A
C448        C464   1.445       .  S
C449        C450   1.428       .  A
C450        C453   1.447       .  S
C451        C454   1.409       .  A
C451        C458   1.410       .  A
C452        N469   1.157       .  T
C453        N471   1.157       .  T
C454        C455   1.409       .  A
C454        C459   1.451       .  S
C455        C456   1.415       .  A
C455        C461   1.450       .  S
C456        C457   1.416       .  A
C457        C458   1.413       .  A
C457        C460   1.451       .  S
C458        C462   1.450       .  S
C459        N466   1.157       .  T
C460        N467   1.157       .  T
C461        N465   1.157   1_655  T
C462        N468   1.157       .  T
C463        N472   1.157       .  T
C464        N470   1.156       .  T
C473        C474   1.412       .  A
C473        C478   1.409       .  A
C473        C491   1.452       .  S
C474        C479   1.504       .  S
C474        C475   1.412       .  A
C475        C476   1.412       .  A
C475        C480   1.453       .  S
C476        C477   1.418       .  A
C476        C492   1.447       .  S
C477        C478   1.411       .  A
C478        C481   1.445       .  S
C479        C482   1.412       .  A
C479        C486   1.409       .  A
C480        N497   1.157       .  T
C481        N499   1.155       .  T
C482        C483   1.413       .  A
C482        C487   1.453       .  S
C483        C484   1.426       .  A
C483        C489   1.448       .  S
C484        C485   1.423       .  A
C485        C486   1.407       .  A
C485        C488   1.449       .  S
C486        C490   1.452       .  S
C487        N494   1.157       .  T
C488        N495   1.157       .  T
C489        N493   1.157       .  T
C490        N496   1.157       .  T
C491        N500   1.157       .  T
C492        N498   1.158       .  T
C501        C502   1.416       .  A
C501        C506   1.412       .  A
C501        C519   1.452       .  S
C502        C507   1.513       .  S
C502        C503   1.415       .  A
C503        C504   1.412       .  A
C503        C508   1.452       .  S
C504        C505   1.416       .  A
C504        C520   1.446       .  S
C505        C506   1.414       .  A
C506        C509   1.448       .  S
C507        C510   1.410       .  A
C507        C514   1.411       .  A
C508        N525   1.157       .  T
C509        N527   1.156       .  T
C510        C511   1.413       .  A
C510        C515   1.453       .  S
C511        C512   1.428       .  A
C511        C517   1.446       .  S
C512        C513   1.427       .  A
C513        C514   1.412       .  A
C513        C516   1.448       .  S
C514        C518   1.451       .  S
C515        N522   1.157       .  T
C516        N523   1.157       .  T
C517        N521   1.156       .  T
C518        N524   1.157       .  T
C519        N528   1.157       .  T
C520        N526   1.156       .  T
C529        C530   1.407       .  A
C529        C534   1.412       .  A
C529        C547   1.454       .  S
C530        C535   1.503       .  S
C530        C531   1.408       .  A
C531        C532   1.413       .  A
C531        C536   1.453       .  S
C532        C533   1.428       .  A
C532        C548   1.448       .  S
C533        C534   1.427       .  A
C534        C537   1.446       .  S
C535        C538   1.412       .  A
C535        C542   1.418       .  A
C536        N553   1.157       .  T
C537        N555   1.156       .  T
C538        C539   1.406       .  A
C538        C543   1.452       .  S
C539        C540   1.409       .  A
C539        C545   1.449       .  S
C540        C541   1.409       .  A
C541        C542   1.414       .  A
C541        C544   1.450       .  S
C542        C546   1.450       .  S
C543        N550   1.157       .  T
C544        N551   1.157       .  T
C545        N549   1.156       .  T
C546        N552   1.157       .  T
C547        N556   1.157       .  T
C548        N554   1.157       .  T
C557        C558   1.410       .  A
C557        C562   1.410       .  A
C557        C575   1.455       .  S
C558        C563   1.506       .  S
C558        C559   1.410       .  A
C559        C560   1.417       .  A
C559        C564   1.451       .  S
C560        C561   1.426       .  A
C560        C576   1.450       .  S
C561        C562   1.428       .  A
C562        C565   1.453       .  S
C563        C566   1.408       .  A
C563        C570   1.409       .  A
C564        N581   1.157       .  T
C565        N583   1.158       .  T
C566        C567   1.412       .  A
C566        C571   1.454       .  S
C567        C568   1.421       .  A
C567        C573   1.446       .  S
C568        C569   1.424       .  A
C569        C570   1.417       .  A
C569        C572   1.446       .  S
C570        C574   1.452       .  S
C571        N578   1.157       .  T
C572        N579   1.156       .  T
C573        N577   1.156       .  T
C574        N580   1.157       .  T
C575        N584   1.157       .  T
C576        N582   1.157       .  T
C585        C586   1.407       .  A
C585        C590   1.411       .  A
C585        C603   1.452       .  S
C586        C591   1.493       .  S
C586        C587   1.405       .  A
C587        C588   1.407       .  A
C587        C592   1.454       .  S
C588        C589   1.419       .  A
C588        C604   1.444       .  S
C589        C590   1.422       .  A
C590        C593   1.448       .  S
C591        C594   1.407       .  A
C591        C598   1.406       .  A
C592        N609   1.157       .  T
C593        N611   1.157       .  T
C594        C595   1.412       .  A
C594        C599   1.450       .  S
C595        C596   1.424       .  A
C595        C601   1.451       .  S
C596        C597   1.428       .  A
C597        C598   1.405       .  A
C597        C600   1.453       .  S
C598        C602   1.455       .  S
C599        N606   1.157       .  T
C600        N607   1.158       .  T
C601        N605   1.158       .  T
C602        N608   1.157       .  T
C603        N612   1.157       .  T
C604        N610   1.155       .  T
C613        C614   1.405       .  A
C613        C618   1.413       .  A
C613        C631   1.454       .  S
C614        C619   1.503       .  S
C614        C615   1.409       .  A
C615        C616   1.415       .  A
C615        C620   1.452       .  S
C616        C617   1.423       .  A
C616        C632   1.448       .  S
C617        C618   1.426       .  A
C618        C621   1.446       .  S
C619        C622   1.404       .  A
C619        C626   1.410       .  A
C620        N637   1.157       .  T
C621        N639   1.156       .  T
C622        C623   1.409       .  A
C622        C627   1.455       .  S
C623        C624   1.420       .  A
C623        C629   1.441       .  S
C624        C625   1.420       .  A
C625        C626   1.418       .  A
C625        C628   1.445       .  S
C626        C630   1.450       .  S
C627        N634   1.157       .  T
C628        N635   1.156       .  T
C629        N633   1.155       .  T
C630        N636   1.157       .  T
C631        N640   1.157       .  T
C632        N638   1.157       .  T
C641        C642   1.409       .  A
C641        C646   1.414       .  A
C641        C659   1.452       .  S
C642        C647   1.503       .  S
C642        C643   1.412       .  A
C643        C644   1.411       .  A
C643        C648   1.453       .  S
C644        C645   1.415       .  A
C644        C660   1.447       .  S
C645        C646   1.423       .  A
C646        C649   1.447       .  S
C647        C650   1.409       .  A
C647        C654   1.412       .  A
C648        N665   1.157       .  T
C649        N667   1.156       .  T
C650        C651   1.409       .  A
C650        C655   1.453       .  S
C651        C652   1.425       .  A
C651        C657   1.452       .  S
C652        C653   1.420       .  A
C653        C654   1.416       .  A
C653        C656   1.448       .  S
C654        C658   1.451       .  S
C655        N662   1.157       .  T
C656        N663   1.157       .  T
C657        N661   1.158       .  T
C658        N664   1.157       .  T
C659        N668   1.157       .  T
C660        N666   1.156       .  T
C669        C670   1.414       .  A
C669        C674   1.410       .  A
C669        C687   1.450       .  S
C670        C675   1.497       .  S
C670        C671   1.414       .  A
C671        C672   1.409       .  A
C671        C676   1.451       .  S
C672        C673   1.411       .  A
C672        C688   1.451       .  S
C673        C674   1.409       .  A
C674        C677   1.451       .  S
C675        C678   1.406       .  A
C675        C682   1.409       .  A
C676        N693   1.157       .  T
C677        N695   1.157       .  T
C678        C679   1.405       .  A
C678        C683   1.447       .  S
C679        C680   1.414       .  A
C679        C685   1.445       .  S
C680        C681   1.429       .  A
C681        C682   1.415       .  A
C681        C684   1.446       .  S
C682        C686   1.453       .  S
C683        N690   1.156       .  T
C684        N691   1.158       .  T
C685        N689   1.157       .  T
C686        N692   1.157       .  T
C687        N696   1.157       .  T
C688        N694   1.157   1_565  T
C697        C698   1.402       .  A
C697        C702   1.415       .  A
C697        C715   1.452       .  S
C698        C703   1.494       .  S
C698        C699   1.402       .  A
C699        C700   1.409       .  A
C699        C704   1.455       .  S
C700        C701   1.427       .  A
C700        C716   1.446       .  S
C701        C702   1.423       .  A
C702        C705   1.439       .  S
C703        C706   1.407       .  A
C703        C710   1.408       .  A
C704        N721   1.157       .  T
C705        N723   1.154       .  T
C706        C707   1.405       .  A
C706        C711   1.452       .  S
C707        C708   1.422       .  A
C707        C713   1.453       .  S
C708        C709   1.421       .  A
C709        C710   1.414       .  A
C709        C712   1.451       .  S
C710        C714   1.451       .  S
C711        N718   1.157       .  T
C712        N719   1.157       .  T
C713        N717   1.158       .  T
C714        N720   1.157       .  T
C715        N724   1.157       .  T
C716        N722   1.155       .  T
C725        C726   1.400       .  A
C725        C730   1.410       .  A
C725        C743   1.453       .  S
C726        C731   1.486       .  S
C726        C727   1.400       .  A
C727        C728   1.407       .  A
C727        C732   1.455       .  S
C728        C729   1.430       .  A
C728        C744   1.447       .  S
C729        C730   1.430       .  A
C730        C733   1.447       .  S
C731        C734   1.402       .  A
C731        C738   1.402       .  A
C732        N749   1.157       .  T
C733        N751   1.157       .  T
C734        C735   1.408       .  A
C734        C739   1.453       .  S
C735        C736   1.421       .  A
C735        C741   1.445       .  S
C736        C737   1.426       .  A
C737        C738   1.407       .  A
C737        C740   1.448       .  S
C738        C742   1.453       .  S
C739        N746   1.157       .  T
C740        N747   1.157       .  T
C741        N745   1.156       .  T
C742        N748   1.157       .  T
C743        N752   1.157       .  T
C744        N750   1.156       .  T
C753        C754   1.409       .  A
C753        C758   1.408       .  A
C753        C771   1.452       .  S
C754        C759   1.494       .  S
C754        C755   1.406       .  A
C755        C756   1.411       .  A
C755        C760   1.452       .  S
C756        C757   1.419       .  A
C756        C772   1.444       .  S
C757        C758   1.412       .  A
C758        C761   1.446       .  S
C759        C762   1.404       .  A
C759        C766   1.405       .  A
C760        N777   1.157       .  T
C761        N779   1.156       .  T
C762        C763   1.408       .  A
C762        C767   1.455       .  S
C763        C764   1.424       .  A
C763        C769   1.445       .  S
C764        C765   1.422       .  A
C765        C766   1.414       .  A
C765        C768   1.445       .  S
C766        C770   1.451       .  S
C767        N774   1.157       .  T
C768        N775   1.156       .  T
C769        N773   1.156       .  T
C770        N776   1.157       .  T
C771        N780   1.157       .  T
C772        N778   1.155       .  T
C781        C782   1.403       .  A
C781        C786   1.408       .  A
C781        C799   1.454       .  S
C782        C787   1.488       .  S
C782        C783   1.402       .  A
C783        C784   1.411       .  A
C783        C788   1.452       .  S
C784        C785   1.425       .  A
C784        C800   1.445       .  S
C785        C786   1.423       .  A
C786        C789   1.444       .  S
C787        C790   1.409       .  A
C787        C794   1.406       .  A
C788        N805   1.157       .  T
C789        N807   1.155       .  T
C790        C791   1.412       .  A
C790        C795   1.450       .  S
C791        C792   1.417       .  A
C791        C797   1.450       .  S
C792        C793   1.421       .  A
C793        C794   1.403       .  A
C793        C796   1.453       .  S
C794        C798   1.454       .  S
C795        N802   1.157       .  T
C796        N803   1.157       .  T
C797        N801   1.158       .  T
C798        N804   1.157       .  T
C799        N808   1.157       .  T
C800        N806   1.156       .  T
C809        C810   1.408       .  A
C809        C814   1.415       .  A
C809        C827   1.455       .  S
C810        C815   1.502       .  S
C810        C811   1.405       .  A
C811        C812   1.413       .  A
C811        C816   1.453       .  S
C812        C813   1.428       .  A
C812        C828   1.444       .  S
C813        C814   1.431       .  A
C814        C817   1.446       .  S
C815        C818   1.413       .  A
C815        C822   1.415       .  A
C816        N833   1.157       .  T
C817        N835   1.158       .  T
C818        C819   1.409       .  A
C818        C823   1.450       .  S
C819        C820   1.409       .  A
C819        C825   1.448       .  S
C820        C821   1.408       .  A
C821        C822   1.410       .  A
C821        C824   1.447       .  S
C822        C826   1.449       .  S
C823        N830   1.157       .  T
C824        N831   1.156       .  T
C825        N829   1.156       .  T
C826        N832   1.157       .  T
C827        N836   1.157       .  T
C828        N834   1.155       .  T
C837        C838   1.407       .  A
C837        C842   1.413       .  A
C837        C855   1.449       .  S
C838        C843   1.494       .  S
C838        C839   1.408       .  A
C839        C840   1.406       .  A
C839        C844   1.454       .  S
C840        C841   1.426       .  A
C840        C856   1.453       .  S
C841        C842   1.424       .  A
C842        C845   1.451       .  S
C843        C846   1.406       .  A
C843        C850   1.408       .  A
C844        N861   1.157       .  T
C845        N863   1.158       .  T
C846        C847   1.406       .  A
C846        C851   1.454       .  S
C847        C848   1.413       .  A
C847        C853   1.440       .  S
C848        C849   1.419       .  A
C849        C850   1.414       .  A
C849        C852   1.446       .  S
C850        C854   1.450       .  S
C851        N858   1.157       .  T
C852        N859   1.156       .  T
C853        N857   1.155       .  T
C854        N860   1.157       .  T
C855        N864   1.157       .  T
C856        N862   1.158       .  T
C865        C866   1.407       .  A
C865        C870   1.412       .  A
C865        C883   1.452       .  S
C866        C871   1.502       .  S
C866        C867   1.404       .  A
C867        C868   1.416       .  A
C867        C872   1.451       .  S
C868        C869   1.427       .  A
C868        C884   1.445       .  S
C869        C870   1.429       .  A
C870        C873   1.448       .  S
C871        C874   1.405       .  A
C871        C878   1.405       .  A
C872        N889   1.157       .  T
C873        N891   1.158       .  T
C874        C875   1.417       .  A
C874        C879   1.454       .  S
C875        C876   1.425       .  A
C875        C881   1.441       .  S
C876        C877   1.418       .  A
C877        C878   1.409       .  A
C877        C880   1.442       .  S
C878        C882   1.450       .  S
C879        N886   1.157       .  T
C880        N887   1.156       .  T
C881        N885   1.155       .  T
C882        N888   1.157       .  T
C883        N892   1.156       .  T
C884        N890   1.155       .  T
C893        C894   1.407       .  A
C893        C898   1.406       .  A
C893        C911   1.453       .  S
C894        C899   1.494       .  S
C894        C895   1.409       .  A
C895        C896   1.412       .  A
C895        C900   1.452       .  S
C896        C897   1.416       .  A
C896        C912   1.445       .  S
C897        C898   1.417       .  A
C898        C901   1.445       .  S
C899        C902   1.409       .  A
C899        C906   1.408       .  A
C900        N917   1.157       .  T
C901        N919   1.156       .  T
C902        C903   1.412       .  A
C902        C907   1.452       .  S
C903        C904   1.422       .  A
C903        C909   1.447       .  S
C904        C905   1.417       .  A
C905        C906   1.407       .  A
C905        C908   1.443       .  S
C906        C910   1.452       .  S
C907        N914   1.157       .  T
C908        N915   1.155       .  T
C909        N913   1.158       .  T
C910        N916   1.157       .  T
C911        N920   1.157       .  T
C912        N918   1.157       .  T
C921        C922   1.413       .  A
C921        C926   1.405       .  A
C921        C939   1.451       .  S
C922        C927   1.495       .  S
C922        C923   1.412       .  A
C923        C924   1.411       .  A
C923        C928   1.450       .  S
C924        C925   1.414       .  A
C924        C940   1.451       .  S
C925        C926   1.412       .  A
C926        C929   1.453       .  S
C927        C930   1.407       .  A
C927        C934   1.410       .  A
C928        N945   1.157       .  T
C929        N947   1.157   1_545  T
C930        C931   1.408       .  A
C930        C935   1.452       .  S
C931        C932   1.415       .  A
C931        C937   1.444       .  S
C932        C933   1.416       .  A
C933        C934   1.411       .  A
C933        C936   1.446       .  S
C934        C938   1.452       .  S
C935        N942   1.157       .  T
C936        N943   1.156       .  T
C937        N941   1.156       .  T
C938        N944   1.157       .  T
C939        N948   1.157       .  T
C940        N946   1.157       .  T
C949        C950   1.409       .  A
C949        C954   1.410       .  A
C949        C967   1.452       .  S
C950        C955   1.500       .  S
C950        C951   1.412       .  A
C951        C952   1.413       .  A
C951        C956   1.449       .  S
C952        C953   1.416       .  A
C952        C968   1.445       .  S
C953        C954   1.422       .  A
C954        C957   1.448       .  S
C955        C958   1.414       .  A
C955        C962   1.415       .  A
C956        N973   1.157       .  T
C957        N975   1.158       .  T
C958        C959   1.409       .  A
C958        C963   1.450       .  S
C959        C960   1.410       .  A
C959        C965   1.451       .  S
C960        C961   1.409       .  A
C961        C962   1.412       .  A
C961        C964   1.451       .  S
C962        C966   1.450       .  S
C963        N970   1.157       .  T
C964        N971   1.158       .  T
C965        N969   1.157       .  T
C966        N972   1.157       .  T
C967        N976   1.157       .  T
C968        N974   1.156       .  T
C977        C978   1.401       .  A
C977        C982   1.410       .  A
C977        C995   1.453       .  S
C978        C983   1.486       .  S
C978        C979   1.403       .  A
C979        C980   1.406       .  A
C979        C984   1.454       .  S
C980        C981   1.421       .  A
C980        C996   1.446       .  S
C981        C982   1.428       .  A
C982        C985   1.447       .  S
C983        C986   1.408       .  A
C983        C990   1.408       .  A
C984       N1001   1.157       .  T
C985       N1003   1.157       .  T
C986        C987   1.405       .  A
C986        C991   1.451       .  S
C987        C988   1.413       .  A
C987        C993   1.452       .  S
C988        C989   1.415       .  A
C989        C990   1.408       .  A
C989        C992   1.450       .  S
C990        C994   1.451       .  S
C991        N998   1.157       .  T
C992        N999   1.157       .  T
C993        N997   1.157   1_556  T
C994       N1000   1.157       .  T
C995       N1004   1.157       .  T
C996       N1002   1.155       .  T
C1005      C1006   1.405       .  A
C1005      C1010   1.410       .  A
C1005      C1023   1.454       .  S
C1006      C1011   1.497       .  S
C1006      C1007   1.407       .  A
C1007      C1008   1.413       .  A
C1007      C1012   1.451       .  S
C1008      C1009   1.424       .  A
C1008      C1024   1.448       .  S
C1009      C1010   1.423       .  A
C1010      C1013   1.447       .  S
C1011      C1014   1.405       .  A
C1011      C1018   1.407       .  A
C1012      N1029   1.157       .  T
C1013      N1031   1.156       .  T
C1014      C1015   1.410       .  A
C1014      C1019   1.453       .  S
C1015      C1016   1.424       .  A
C1015      C1021   1.447       .  S
C1016      C1017   1.421       .  A
C1017      C1018   1.413       .  A
C1017      C1020   1.447       .  S
C1018      C1022   1.452       .  S
C1019      N1026   1.157       .  T
C1020      N1027   1.156       .  T
C1021      N1025   1.157       .  T
C1022      N1028   1.157       .  T
C1023      N1032   1.157       .  T
C1024      N1030   1.157       .  T
C1033      C1034   1.406       .  A
C1033      C1038   1.407       .  A
C1033      C1051   1.454       .  S
C1034      C1039   1.485       .  S
C1034      C1035   1.401       .  A
C1035      C1036   1.407       .  A
C1035      C1040   1.452       .  S
C1036      C1037   1.425       .  A
C1036      C1052   1.448       .  S
C1037      C1038   1.420       .  A
C1038      C1041   1.447       .  S
C1039      C1042   1.401       .  A
C1039      C1046   1.399       .  A
C1040      N1057   1.157       .  T
C1041      N1059   1.156       .  T
C1042      C1043   1.409       .  A
C1042      C1047   1.451       .  S
C1043      C1044   1.428       .  A
C1043      C1049   1.448       .  S
C1044      C1045   1.435       .  A
C1045      C1046   1.405       .  A
C1045      C1048   1.448       .  S
C1046      C1050   1.456       .  S
C1047      N1054   1.157       .  T
C1048      N1055   1.159       .  T
C1049      N1053   1.157       .  T
C1050      N1056   1.157       .  T
C1051      N1060   1.157       .  T
C1052      N1058   1.157       .  T
C1061      C1062   1.403       .  A
C1061      C1066   1.412       .  A
C1061      C1079   1.454       .  S
C1062      C1067   1.499       .  S
C1062      C1063   1.406       .  A
C1063      C1064   1.415       .  A
C1063      C1068   1.451       .  S
C1064      C1065   1.424       .  A
C1064      C1080   1.447       .  S
C1065      C1066   1.425       .  A
C1066      C1069   1.445       .  S
C1067      C1070   1.404       .  A
C1067      C1074   1.406       .  A
C1068      N1085   1.157       .  T
C1069      N1087   1.156       .  T
C1070      C1071   1.412       .  A
C1070      C1075   1.453       .  S
C1071      C1072   1.424       .  A
C1071      C1077   1.446       .  S
C1072      C1073   1.427       .  A
C1073      C1074   1.415       .  A
C1073      C1076   1.448       .  S
C1074      C1078   1.452       .  S
C1075      N1082   1.157       .  T
C1076      N1083   1.157       .  T
C1077      N1081   1.156       .  T
C1078      N1084   1.157       .  T
C1079      N1088   1.157       .  T
C1080      N1086   1.157       .  T
C1089      C1090   1.406       .  A
C1089      C1094   1.413       .  A
C1089      C1107   1.451       .  S
C1090      C1095   1.498       .  S
C1090      C1091   1.408       .  A
C1091      C1092   1.412       .  A
C1091      C1096   1.453       .  S
C1092      C1093   1.420       .  A
C1092      C1108   1.447       .  S
C1093      C1094   1.426       .  A
C1094      C1097   1.448       .  S
C1095      C1098   1.411       .  A
C1095      C1102   1.412       .  A
C1096      N1113   1.157       .  T
C1097      N1115   1.157       .  T
C1098      C1099   1.409       .  A
C1098      C1103   1.451       .  S
C1099      C1100   1.414       .  A
C1099      C1105   1.452       .  S
C1100      C1101   1.412       .  A
C1101      C1102   1.412       .  A
C1101      C1104   1.451       .  S
C1102      C1106   1.449       .  S
C1103      N1110   1.157       .  T
C1104      N1111   1.157       .  T
C1105      N1109   1.157   1_556  T
C1106      N1112   1.157       .  T
C1107      N1116   1.157       .  T
C1108      N1114   1.156       .  T
C1117      C1118   1.407       .  A
C1117      C1122   1.417       .  A
C1117      C1135   1.450       .  S
C1118      C1123   1.499       .  S
C1118      C1119   1.405       .  A
C1119      C1120   1.410       .  A
C1119      C1124   1.455       .  S
C1120      C1121   1.423       .  A
C1120      C1136   1.446       .  S
C1121      C1122   1.424       .  A
C1122      C1125   1.448       .  S
C1123      C1126   1.411       .  A
C1123      C1130   1.410       .  A
C1124      N1141   1.157       .  T
C1125      N1143   1.157       .  T
C1126      C1127   1.410       .  A
C1126      C1131   1.451       .  S
C1127      C1128   1.417       .  A
C1127      C1133   1.452       .  S
C1128      C1129   1.418       .  A
C1129      C1130   1.414       .  A
C1129      C1132   1.451       .  S
C1130      C1134   1.451       .  S
C1131      N1138   1.157       .  T
C1132      N1139   1.157       .  T
C1133      N1137   1.158   1_655  T
C1134      N1140   1.157       .  T
C1135      N1144   1.157       .  T
C1136      N1142   1.156       .  T
C1145      C1146   1.404       .  A
C1145      C1150   1.412       .  A
C1145      C1163   1.452       .  S
C1146      C1151   1.494       .  S
C1146      C1147   1.405       .  A
C1147      C1148   1.411       .  A
C1147      C1152   1.453       .  S
C1148      C1149   1.422       .  A
C1148      C1164   1.446       .  S
C1149      C1150   1.425       .  A
C1150      C1153   1.447       .  S
C1151      C1154   1.409       .  A
C1151      C1158   1.411       .  A
C1152      N1169   1.157       .  T
C1153      N1171   1.157       .  T
C1154      C1155   1.405       .  A
C1154      C1159   1.451       .  S
C1155      C1156   1.417       .  A
C1155      C1161   1.453       .  S
C1156      C1157   1.415       .  A
C1157      C1158   1.413       .  A
C1157      C1160   1.450       .  S
C1158      C1162   1.450       .  S
C1159      N1166   1.157       .  T
C1160      N1167   1.157       .  T
C1161      N1165   1.158       .  T
C1162      N1168   1.157       .  T
C1163      N1172   1.157       .  T
C1164      N1170   1.156       .  T
