geometry optimzed in LAMMPS
_audit_creation_date              2020-11-30 
_audit_creation_method            'lammps2cif' 
_symmetry_space_group_name_H-M    'P1' 
_symmetry_Int_Tables_number       1 
_symmetry_cell_setting            triclinic 
loop_ 
_symmetry_equiv_pos_as_xyz 
  x,y,z 
_cell_length_a                    34.512770421938555 
_cell_length_b                    34.89282982749484 
_cell_length_c                    34.43230303555595 
_cell_angle_alpha                 87.6948191482584 
_cell_angle_beta                  89.69871790515631 
_cell_angle_gamma                 88.55122169773556 
loop_ 
_atom_site_label 
_atom_site_type_symbol 
_atom_site_fract_x 
_atom_site_fract_y 
_atom_site_fract_z 
_atom_site_charge 
C1          C  0.43925514  0.34551656  0.63583133     0.44840
N2          N  0.42105527  0.33762960  0.57715240     0.03730
C3          C  0.41272197  0.21754346  0.45743560    -0.04140
H4          H  0.55550233  0.24403034  0.57500070     0.09230
C5          C  0.58544104  0.31684117  0.48646400    -0.04490
Co6        Co  0.41672849  0.25809825  0.55838312     0.74180
N7          N  0.49704671  0.23114863  0.55702878    -0.23670
Co8        Co  0.49487331  0.23807091  0.49361653     0.74070
C9          C  0.60942260  0.28382394  0.49934674     0.44950
N10         N  0.49707812  0.37093169  0.50038844     0.03350
N11         N  0.54939397  0.26700654  0.49607683     0.03460
N12         N  0.37456046  0.21236507  0.50946607    -0.44520
H13         H  0.43472122  0.28168951  0.65189239     0.09210
N14         N  0.46511846  0.23014519  0.57819391     0.03740
N15         N  0.49496284  0.25142193  0.43142789     0.03480
C16         C  0.49844069  0.25669606  0.36842919     0.45090
N17         N  0.46504219  0.37928040  0.51939830    -0.23130
C18         C  0.34161014  0.30363518  0.56784613    -0.04050
N19         N  0.43020069  0.36383572  0.60181617    -0.44230
N20         N  0.49316475  0.23101142  0.39926161    -0.44460
C21         C  0.32670244  0.34038632  0.55053662     0.44860
N22         N  0.41091086  0.21658126  0.51942330     0.03730
N23         N  0.41586275  0.35251385  0.45694348    -0.23150
N24         N  0.42335795  0.30293419  0.59339076    -0.23640
N25         N  0.44787313  0.34938272  0.43632848     0.03370
H26         H  0.35596590  0.34680712  0.44172447     0.09260
H27         H  0.50733011  0.32098242  0.36880542     0.09290
N28         N  0.43549068  0.21735704  0.48960764    -0.23690
N29         N  0.54921076  0.30380238  0.48536868    -0.23300
N30         N  0.36717236  0.31386185  0.51243482     0.03730
C31         C  0.50825002  0.23729258  0.62230007     0.45130
C32         C  0.47133300  0.40903494  0.54150056    -0.04560
N33         N  0.50015781  0.28777415  0.42214757    -0.23300
H34         H  0.59426732  0.34511361  0.47649535     0.09280
N35         N  0.47094816  0.23153408  0.61582768    -0.44530
H36         H  0.45092868  0.42239502  0.56074801     0.09260
C37         C  0.40193058  0.34673415  0.39482977     0.44960
C38         C  0.43108662  0.30544363  0.63106152    -0.04050
Co39       Co  0.41654202  0.34659609  0.51630096     0.73820
N40         N  0.52575874  0.39328823  0.50832988    -0.44240
C41         C  0.37198799  0.21494379  0.47092339     0.45230
N42         N  0.33737520  0.33807009  0.51338942    -0.44230
Co43       Co  0.49911058  0.32906653  0.46149193     0.73890
C44         C  0.50368907  0.29350956  0.38395729    -0.04560
C45         C  0.52613745  0.23687970  0.58280117    -0.04120
N46         N  0.36651057  0.28877156  0.54168818    -0.23650
N47         N  0.58519626  0.25365869  0.50435850    -0.44410
H48         H  0.42231902  0.22480975  0.42823170     0.09240
C49         C  0.38554473  0.35091698  0.43305107    -0.04540
Cl50       Cl  0.45797971  0.29284385  0.50801248    -0.47540
C51         C  0.51140323  0.41698012  0.53472920     0.44990
H52         H  0.34211146  0.29555051  0.59851475     0.09200
N53         N  0.44059262  0.34688164  0.39895951    -0.44250
C54         C  0.40692155  0.42303494  0.32676947     0.44840
N55         N  0.45476534  0.46074685  0.32826643     0.03730
C56         C  0.42332078  0.65621890  0.28996873    -0.04140
H57         H  0.33916115  0.61566936  0.24774284     0.09230
C58         C  0.41373463  0.48900627  0.19480123    -0.04490
Co59       Co  0.42550131  0.54132349  0.32588456     0.74180
N60         N  0.37482132  0.56617683  0.26216121    -0.23670
Co61       Co  0.42537038  0.58443245  0.23637776     0.74070
C62         C  0.37463756  0.50757573  0.18912259     0.44950
N63         N  0.49763340  0.45498522  0.22775936     0.03350
N64         N  0.41931024  0.54976000  0.19066946     0.03460
N65         N  0.41943447  0.62221233  0.34684813    -0.44520
H66         H  0.36313217  0.47165888  0.33043273     0.09210
N67         N  0.37499766  0.54204830  0.29248804     0.03740
N68         N  0.47431634  0.60281029  0.21276871     0.03480
C69         C  0.51906344  0.64416208  0.21047110     0.45090
N70         N  0.50343501  0.44525034  0.26456025    -0.23130
C71         C  0.49092731  0.57414386  0.37479819    -0.04050
N72         N  0.44577343  0.42432046  0.32601616    -0.44230
N73         N  0.48122862  0.63956584  0.21374896    -0.44460
C74         C  0.53249139  0.56856629  0.37544455     0.44860
N75         N  0.42679465  0.59972543  0.31819452     0.03730
N76         N  0.55641450  0.50331830  0.28031071    -0.23150
N77         N  0.42383267  0.48297901  0.33219578    -0.23640
N78         N  0.55578318  0.51491424  0.24327692     0.03370
H79         H  0.60272951  0.48830122  0.32047744     0.09260
H80         H  0.56592920  0.59529063  0.20752433     0.09290
N81         N  0.42892710  0.61828314  0.28429166    -0.23690
N82         N  0.44021123  0.51747489  0.19351996    -0.23300
N83         N  0.50747869  0.52098445  0.34932728     0.03730
C84         C  0.32297346  0.57692147  0.29976108     0.45130
C85         C  0.50605984  0.40752425  0.27036599    -0.04560
N86         N  0.50506101  0.58010081  0.20796205    -0.23300
H87         H  0.42006820  0.45947670  0.20380128     0.09280
N88         N  0.34224218  0.54472409  0.31192800    -0.44530
H89         H  0.51039678  0.39239266  0.29813454     0.09260
C90         C  0.61692948  0.51133801  0.25876206     0.44960
C91         C  0.39249148  0.46136032  0.33224362    -0.04050
Co92       Co  0.50583170  0.48288897  0.30680268     0.73820
N93         N  0.49442187  0.42330432  0.20712090    -0.44240
C94         C  0.41646070  0.65787834  0.33205825     0.45230
N95         N  0.54057589  0.53469217  0.36028872    -0.44230
Co96       Co  0.50018626  0.51684654  0.21449361     0.73890
C97         C  0.53571909  0.60430514  0.20710527    -0.04560
C98         C  0.34262206  0.58846476  0.26371322    -0.04120
N99         N  0.47753899  0.54381236  0.35660309    -0.23650
N100        N  0.38219818  0.54469201  0.18431346    -0.44410
H101        H  0.41942471  0.67849581  0.26746148     0.09240
C102        C  0.59336926  0.50024193  0.29248898    -0.04540
Cl103      Cl  0.46525171  0.53196115  0.27082364    -0.47540
C104        C  0.49945782  0.39259062  0.23327311     0.44990
H105        H  0.47521641  0.60010180  0.38119877     0.09200
N106        N  0.59159501  0.51959574  0.22902762    -0.44250
C107        C  0.36677275  0.71743868  0.57466644     0.44840
N108        N  0.42357135  0.70967322  0.55043220     0.03730
C109        C  0.56843632  0.80532715  0.56683583    -0.04140
H110        H  0.44417721  0.79104372  0.42523993     0.09230
C111        C  0.52541248  0.73365027  0.38312887    -0.04490
Co112      Co  0.46395053  0.78112244  0.56164557     0.74180
N113        N  0.46104729  0.80987325  0.48220328    -0.23670
Co114      Co  0.52485372  0.79931450  0.48251565     0.74070
C115        C  0.51853206  0.76959133  0.36270618     0.44950
N116        N  0.49429105  0.67395844  0.45751052     0.03350
N117        N  0.51908771  0.77914075  0.42435063     0.03460
N118        N  0.51880058  0.81829488  0.60531993    -0.44520
H119        H  0.37691345  0.77947800  0.58832150     0.09210
N120        N  0.43999321  0.81104153  0.51442504     0.03740
N121        N  0.58337127  0.77868812  0.47996843     0.03480
C122        C  0.64572799  0.77166184  0.47454120     0.45090
N123        N  0.46733337  0.67349914  0.48481009    -0.23130
C124        C  0.50064392  0.74282465  0.64086505    -0.04050
N125        N  0.39258448  0.69089117  0.56135379    -0.44230
N126        N  0.61662871  0.79699220  0.48336066    -0.44460
C127        C  0.51341149  0.70286409  0.65135108     0.44860
N128        N  0.50772954  0.81747043  0.56853985     0.03730
N129        N  0.53924260  0.67612950  0.54089110    -0.23150
N130        N  0.42014683  0.74566802  0.55950895    -0.23640
N131        N  0.55974625  0.66971881  0.50936258     0.03370
H132        H  0.55587818  0.71213294  0.58731718     0.09260
H133        H  0.64029438  0.70912209  0.45728456     0.09290
N134        N  0.53634001  0.81251150  0.54384150    -0.23690
N135        N  0.52515659  0.74209156  0.42039530    -0.23300
N136        N  0.48554390  0.70629798  0.59617555     0.03730
C137        C  0.39611221  0.79651095  0.47115812     0.45130
C138        C  0.43251172  0.67471689  0.46703542    -0.04560
N139        N  0.58906346  0.74249677  0.47106951    -0.23300
H140        H  0.53270803  0.70589187  0.37176659     0.09280
N141        N  0.40245678  0.80481012  0.50844513    -0.44530
H142        H  0.40503749  0.68067244  0.48091021     0.09260
C143        C  0.60182561  0.69012999  0.54875158     0.44960
C144        C  0.38625485  0.75268782  0.57605916    -0.04050
Co145      Co  0.47860028  0.68814826  0.54221573     0.73820
N146        N  0.47979318  0.67401946  0.42225879    -0.44240
C147        C  0.55658244  0.80910005  0.60855352     0.45230
N148        N  0.49735568  0.68278240  0.62400095    -0.44230
Co149      Co  0.54192608  0.70588095  0.46490874     0.73890
C150        C  0.62711652  0.73606925  0.46545558    -0.04560
C151        C  0.43562263  0.80037143  0.45362243    -0.04120
N152        N  0.48636101  0.74248385  0.60469326    -0.23650
N153        N  0.51552836  0.79745216  0.38955415    -0.44410
H154        H  0.59594563  0.79412519  0.55667173     0.09240
C155        C  0.56389453  0.69254818  0.56545625    -0.04540
Cl156      Cl  0.50230954  0.74378800  0.51259942    -0.47540
C157        C  0.44133119  0.67552897  0.42558227     0.44990
H158        H  0.49979906  0.76752044  0.65867739     0.09200
N159        N  0.59716548  0.67356675  0.51482890    -0.44250
C160        C  0.62414794  0.59779079  0.39456262     0.44840
N161        N  0.65160678  0.58232098  0.44774906     0.03730
C162        C  0.81047985  0.61465328  0.52665224    -0.04140
H163        H  0.80164527  0.47520500  0.41709684     0.09230
C164        C  0.71901065  0.42720312  0.51777359    -0.04490
Co165      Co  0.73386483  0.60112196  0.44667789     0.74180
N166        N  0.77959607  0.52970698  0.43770819    -0.23670
Co167      Co  0.78456761  0.52893602  0.50126250     0.74070
C168        C  0.74963876  0.40927762  0.49632912     0.44950
N169        N  0.65161438  0.49859923  0.52720853     0.03350
N170        N  0.76320001  0.46926306  0.50225586     0.03460
N171        N  0.79220372  0.64857817  0.47344851    -0.44520
H172        H  0.68143112  0.61440130  0.36457735     0.09210
N173        N  0.76014282  0.55784279  0.41874423     0.03740
N174        N  0.78367112  0.52764953  0.56567615     0.03480
C175        C  0.78387926  0.53148444  0.62970621     0.45090
N176        N  0.63318241  0.52788756  0.51001559    -0.23130
C177        C  0.71090688  0.68035170  0.48724769    -0.04050
N178        N  0.61762296  0.58558936  0.43116797    -0.44230
N179        N  0.79984532  0.54586011  0.59511011    -0.44460
C180        C  0.69128693  0.68551412  0.52574230     0.44860
N181        N  0.78599772  0.61188349  0.47014916     0.03730
N182        N  0.66374604  0.57749873  0.56604957    -0.23150
N183        N  0.68025755  0.59156129  0.42397140    -0.23640
N184        N  0.68853517  0.55197363  0.57999925     0.03370
H185        H  0.64149253  0.63071671  0.58921631     0.09260
H186        H  0.73310076  0.49257433  0.63589304     0.09290
N187        N  0.79831803  0.58984627  0.49986085    -0.23690
N188        N  0.72966380  0.46328795  0.51987766    -0.23300
N189        N  0.68301773  0.62924030  0.50572828     0.03730
C190        C  0.77223784  0.51913280  0.37358379     0.45130
C191        C  0.59575045  0.52083157  0.50690827    -0.04560
N192        N  0.75631988  0.50605255  0.57979833    -0.23300
H193        H  0.69400431  0.41467059  0.53193013     0.09280
N194        N  0.75531955  0.55270950  0.38143872    -0.44530
H195        H  0.57319066  0.54175015  0.49893718     0.09260
C196        C  0.68820150  0.59621326  0.62222219     0.44960
C197        C  0.66563728  0.60164123  0.38882822    -0.04050
Co198      Co  0.65687732  0.57928736  0.50679184     0.73820
N199        N  0.62787566  0.47114280  0.53794652    -0.44240
C200        C  0.80586849  0.65416322  0.50866945     0.45230
N201        N  0.67537816  0.65238820  0.53305978    -0.44230
Co202      Co  0.70565947  0.50433220  0.55127982     0.73890
C203        C  0.75705971  0.50316448  0.61848387    -0.04560
C204        C  0.78819824  0.50311105  0.41094489    -0.04120
N205        N  0.70708342  0.64285598  0.47985162    -0.23650
N206        N  0.77680810  0.43651294  0.48751221    -0.44410
H207        H  0.81830166  0.60694078  0.55629873     0.09240
C208        C  0.65955289  0.60505365  0.59215669    -0.04540
Cl209      Cl  0.72032672  0.55228716  0.50049795    -0.47540
C210        C  0.59275904  0.48361212  0.52571069     0.44990
H211        H  0.72900405  0.69952371  0.47036052     0.09200
N212        N  0.70613841  0.56412452  0.61057410    -0.44250
C213        C  0.54555529  0.37939434  0.65360071     0.44840
N214        N  0.55568853  0.43939573  0.65599070     0.03730
C215        C  0.59523311  0.55816077  0.78661626    -0.04140
H216        H  0.44987770  0.43800067  0.77700938     0.09230
C217        C  0.39970407  0.53392962  0.71051185    -0.04490
Co218      Co  0.58028084  0.46221693  0.73415885     0.74180
N219        N  0.50876477  0.45938136  0.77696528    -0.23670
Co220      Co  0.50813713  0.52324327  0.76967282     0.74070
C221        C  0.38441116  0.50890800  0.74063675     0.44950
N222        N  0.46668276  0.51955756  0.64142663     0.03350
N223        N  0.44635368  0.51951627  0.75157800     0.03460
N224        N  0.63170784  0.50575723  0.77994487    -0.44520
H225        H  0.56747816  0.36776729  0.71551344     0.09210
N226        N  0.54127001  0.43968376  0.77107299     0.03740
N227        N  0.50810265  0.58604823  0.75505137     0.03480
C228        C  0.51562863  0.64895333  0.74774980     0.45090
N229        N  0.49084472  0.49146545  0.63255300    -0.23130
C230        C  0.65504729  0.49776180  0.70216865    -0.04050
N231        N  0.54529991  0.41263863  0.63264468    -0.44230
N232        N  0.52373402  0.61667788  0.77129325    -0.44460
C233        C  0.66261105  0.52432529  0.67039771     0.44860
N234        N  0.59462949  0.49859762  0.77601530     0.03730
N235        N  0.54958740  0.55830773  0.63520238    -0.23150
N236        N  0.56544802  0.42561455  0.69074535    -0.23640
N237        N  0.51796671  0.57789107  0.64342628     0.03370
H238        H  0.60727746  0.57887181  0.62910779     0.09260
H239        H  0.48149192  0.65050201  0.69134828     0.09290
N240        N  0.57100971  0.52807307  0.78183304    -0.23690
N241        N  0.43752070  0.53674783  0.71804253    -0.23300
N242        N  0.60818645  0.49914272  0.66119383     0.03730
C243        C  0.50054561  0.39385566  0.77297594     0.45130
C244        C  0.46845303  0.46049795  0.62676633    -0.04560
N245        N  0.49267908  0.59674215  0.72140428    -0.23300
H246        H  0.38524111  0.54521581  0.68460175     0.09280
N247        N  0.53773761  0.40226066  0.77058164    -0.44530
H248        H  0.47833018  0.43148059  0.62312669     0.09260
C249        C  0.55891693  0.62257954  0.63528304     0.44960
C250        C  0.56211728  0.38750788  0.69103758    -0.04050
Co251      Co  0.55130162  0.49722746  0.64371934     0.73820
N252        N  0.43050059  0.51070698  0.64003269    -0.44240
C253        C  0.63618227  0.54305826  0.78468553     0.45230
N254        N  0.63480264  0.51987564  0.64402344    -0.44230
Co255      Co  0.47890723  0.55764957  0.68077362     0.73890
C256        C  0.49313577  0.63490583  0.71628534    -0.04560
C257        C  0.48069106  0.43219007  0.77746921    -0.04120
N258        N  0.61905850  0.48647273  0.69600905    -0.23650
N259        N  0.41506301  0.50100687  0.76578388    -0.44410
H260        H  0.58647632  0.58788338  0.78795773     0.09240
C261        C  0.57746445  0.58484974  0.63066600    -0.04540
Cl262      Cl  0.52963606  0.51007864  0.70735445    -0.47540
C263        C  0.42828728  0.47398661  0.63296461     0.44990
H264        H  0.67256480  0.49187109  0.72759952     0.09200
N265        N  0.52219204  0.61478086  0.64222168    -0.44250
C266        C  0.37949590  0.43146240  0.53174610     0.44840
N267        N  0.36360092  0.47112682  0.48475804     0.03730
C268        C  0.28689915  0.64688806  0.53631510    -0.04140
H269        H  0.28248564  0.52627207  0.63855003     0.09230
C270        C  0.22543302  0.46583802  0.56305103    -0.04490
Co271      Co  0.35596805  0.55313967  0.51180295     0.74180
N272        N  0.30596953  0.54528071  0.58306029    -0.23670
Co273      Co  0.26192342  0.56822193  0.54646585     0.74070
C274        C  0.22623865  0.47881740  0.60412667     0.44950
N275        N  0.25271994  0.45012593  0.47346460     0.03350
N276        N  0.22567724  0.52671243  0.56223256     0.03460
N277        N  0.34503229  0.64247640  0.50715843    -0.44520
H278        H  0.40151381  0.47990125  0.56636696     0.09210
N279        N  0.34188562  0.54456687  0.56984662     0.03740
N280        N  0.22229261  0.59089810  0.50586137     0.03480
C281        C  0.23210630  0.63687296  0.46124966     0.45090
N282        N  0.28877686  0.44509188  0.46151874    -0.23130
C283        C  0.36574925  0.59573039  0.43098940    -0.04050
N284        N  0.36590630  0.43446412  0.49557212    -0.44230
N285        N  0.22371334  0.62861336  0.49879108    -0.44460
C286        C  0.35771856  0.58595943  0.39112270     0.44860
N287        N  0.33105405  0.60802453  0.51518690     0.03730
N288        N  0.28322527  0.50572356  0.40655946    -0.23150
N289        N  0.37587177  0.49413381  0.51105992    -0.23640
N290        N  0.24691886  0.51378623  0.41533610     0.03370
H291        H  0.31289886  0.49287454  0.35458841     0.09260
H292        H  0.23974656  0.59078830  0.41536058     0.09290
N293        N  0.29686758  0.61083391  0.53177618    -0.23690
N294        N  0.22380245  0.49807421  0.53887082    -0.23300
N295        N  0.35735452  0.53491281  0.42815417     0.03730
C296        C  0.34609239  0.51327134  0.62476408     0.45130
C297        C  0.29605812  0.40837025  0.45569453    -0.04560
N298        N  0.22293276  0.57136420  0.47387553    -0.23300
H299        H  0.22963392  0.43688554  0.55352285     0.09280
N300        N  0.36612690  0.52787495  0.59455782    -0.44530
H301        H  0.32192050  0.39757215  0.44229370     0.09260
C302        C  0.25022812  0.51147599  0.35313211     0.44960
C303        C  0.38926183  0.47083756  0.54040665    -0.04050
Co304      Co  0.32413871  0.48928869  0.44551951     0.73820
N305        N  0.23441370  0.41683283  0.47685860    -0.44240
C306        C  0.31594702  0.66738851  0.51665920     0.45230
N307        N  0.35429376  0.54788998  0.39197262    -0.44230
Co308      Co  0.23293171  0.50840603  0.47574789     0.73890
C309        C  0.23082695  0.59793417  0.44438183    -0.04560
C310        C  0.30643093  0.52777809  0.61867873    -0.04120
N311        N  0.36464293  0.56225724  0.45212201    -0.23650
N312        N  0.22492863  0.51687820  0.59955901    -0.44410
H313        H  0.26101012  0.65743745  0.55072708     0.09240
C314        C  0.28734170  0.50296267  0.36881409    -0.04540
Cl315      Cl  0.29397371  0.52907734  0.49519045    -0.47540
C316        C  0.26102528  0.38946244  0.46642596     0.44990
H317        H  0.36630384  0.62402038  0.44227174     0.09200
N318        N  0.22516747  0.51773108  0.38324236    -0.44250
C319        C  0.85536181  0.56872900  0.88823773     0.44840
N320        N  0.85699839  0.50959726  0.90692373     0.03730
C321        C  0.71825129  0.43527010  0.01301080    -0.04140
H322        H  0.70887521  0.60372393  0.92107140     0.09230
C323        C  0.79627135  0.62326147  0.01497558    -0.04490
Co324      Co  0.77573734  0.47899956  0.91687646     0.74180
N325        N  0.72355513  0.54296827  0.93086698    -0.23670
Co326      Co  0.73130410  0.52641466  0.99247474     0.74070
C327        C  0.76327244  0.64425604  0.99859791     0.44950
N328        N  0.86454273  0.55701901  0.99905872     0.03350
N329        N  0.75121265  0.58377219  0.00019203     0.03460
N330        N  0.74378807  0.40866482  0.96053097    -0.44520
H331        H  0.79154447  0.56985728  0.88172828     0.09210
N332        N  0.73464312  0.51832928  0.90529601     0.03740
N333        N  0.74071542  0.51457681  0.05418105     0.03480
C334        C  0.74281422  0.50744982  0.11716909     0.45090
N335        N  0.88672886  0.53171226  0.98205898    -0.23130
C336        C  0.80999661  0.40592594  0.89695049    -0.04050
N337        N  0.87839987  0.54003641  0.90158561    -0.44230
N338        N  0.71856651  0.50616035  0.08553407    -0.44460
C339        C  0.83948513  0.38003032  0.91154970     0.44860
N340        N  0.73881350  0.44662561  0.95433557     0.03730
N341        N  0.86167182  0.46279091  0.01731953    -0.23150
N342        N  0.82061408  0.51546622  0.89466972    -0.23640
N343        N  0.84515491  0.48474414  0.04329728     0.03370
H344        H  0.88704569  0.40631789  0.02073948     0.09260
H345        H  0.80594993  0.52335172  0.11925926     0.09290
N346        N  0.72388463  0.46386136  0.98509036    -0.23690
N347        N  0.78651618  0.58652404  0.01441866    -0.23300
N348        N  0.84502061  0.43397506  0.93825504     0.03730
C349        C  0.72153580  0.56751974  0.86703124     0.45130
C350        C  0.92388470  0.53946156  0.98887325    -0.04560
N351        N  0.77602095  0.52125574  0.06503440    -0.23300
H352        H  0.82368669  0.63383685  0.02449454     0.09280
N353        N  0.73227248  0.53066865  0.86872842    -0.44530
H354        H  0.94852593  0.52086500  0.98271788     0.09260
C355        C  0.85703938  0.43135825  0.07451807     0.44960
C356        C  0.81749821  0.55302163  0.88347098    -0.04050
Co357      Co  0.86403987  0.48303000  0.96103918     0.73820
N358        N  0.88451996  0.58307296  0.01571957    -0.44240
C359        C  0.73135465  0.39792300  0.99672844     0.45230
N360        N  0.86343736  0.40097682  0.93316987    -0.44230
Co361      Co  0.81867795  0.53788450  0.03005508     0.73890
C362        C  0.77984267  0.51807362  0.10322409    -0.04560
C363        C  0.71541421  0.57608559  0.90925171    -0.04120
N364        N  0.81335618  0.43632694  0.91816517    -0.23650
N365        N  0.73619205  0.61823903  0.98955258    -0.44410
H366        H  0.71153464  0.44018594  0.04312355     0.09240
C367        C  0.87104948  0.42901696  0.03443787    -0.04540
Cl368      Cl  0.79699132  0.50673425  0.97515520    -0.47540
C369        C  0.92190741  0.57331987  0.01213575     0.44990
H370        H  0.78537726  0.40048499  0.87874236     0.09200
N371        N  0.84113070  0.46657512  0.07720692    -0.44250
C372        C  0.93107864  0.61402870  0.86746086     0.44840
N373        N  0.95619468  0.56374922  0.84233454     0.03730
C374        C  0.13763215  0.51560693  0.79668903    -0.04140
H375        H  0.11533720  0.66420946  0.80053663     0.09230
C376        C  0.99627282  0.63321834  0.70788959    -0.04490
Co377      Co  0.03919802  0.55123935  0.85518788     0.74180
N378        N  0.07710335  0.61727985  0.81375198    -0.23670
Co379      Co  0.08395631  0.58158592  0.76847418     0.74070
C380        C  0.01765245  0.66718943  0.72020620     0.44950
N381        N  0.94544275  0.55658539  0.73224269     0.03350
N382        N  0.05110665  0.61558488  0.73233828     0.03460
N383        N  0.10158852  0.49102543  0.84440847    -0.44520
H384        H  0.98678296  0.62352119  0.90225863     0.09210
N385        N  0.05907619  0.60592515  0.84563572     0.03740
N386        N  0.09481377  0.54794914  0.72295214     0.03480
C387        C  0.13317120  0.50149951  0.70550437     0.45090
N388        N  0.93289369  0.54619503  0.76688145    -0.23130
C389        C  0.03587242  0.46467660  0.88328481    -0.04050
N390        N  0.92567222  0.58672648  0.84196637    -0.44230
N391        N  0.13122818  0.53753600  0.71679089    -0.44460
C392        C  0.00992343  0.43417822  0.87363496     0.44860
N393        N  0.09094849  0.52698605  0.83617473     0.03730
N394        N  0.97279714  0.47465538  0.76882633    -0.23150
N395        N  0.98388076  0.57508833  0.86490288    -0.23640
N396        N  0.99443097  0.48015999  0.73740466     0.03370
H397        H  0.95069550  0.42428341  0.79901060     0.09260
H398        H  0.07915742  0.46449548  0.69481605     0.09290
N399        N  0.11032561  0.54133871  0.80612335    -0.23690
N400        N  0.01967582  0.60193986  0.71615884    -0.23300
N401        N  0.98795170  0.48684156  0.84945514     0.03730
C402        C  0.08507643  0.65853105  0.86001559     0.45130
C403        C  0.89586652  0.55463039  0.77205606    -0.04560
N404        N  0.06906228  0.52323189  0.71274466    -0.23300
H405        H  0.96637834  0.63228659  0.69888204     0.09280
N406        N  0.06301912  0.62980981  0.87374641    -0.44530
H407        H  0.87906435  0.54759624  0.79790675     0.09260
C408        C  0.99041621  0.41802089  0.74716974     0.44960
C409        C  0.97014502  0.60599623  0.88360746    -0.04050
Co410      Co  0.96240008  0.51816014  0.80705260     0.73820
N411        N  0.91608867  0.57467109  0.71251796    -0.44240
C412        C  0.12917776  0.48071872  0.81898962     0.45230
N413        N  0.98038673  0.45058714  0.85447389    -0.44230
Co414      Co  0.00715679  0.54009216  0.72133736     0.73890
C415        C  0.09085120  0.49164269  0.70236654    -0.04560
C416        C  0.09497652  0.65023063  0.82007436    -0.04120
N417        N  0.01989905  0.49648748  0.86595879    -0.23650
N418        N  0.05089312  0.65311671  0.73494818    -0.44410
H419        H  0.16052048  0.52021525  0.77609717     0.09240
C420        C  0.96656701  0.43724631  0.77499818    -0.04540
Cl421      Cl  0.02307767  0.54816839  0.78741279    -0.47540
C422        C  0.88433284  0.57417923  0.73742424     0.44990
H423        H  0.06341585  0.46305905  0.89754944     0.09200
N424        N  0.00730547  0.44632970  0.72436116    -0.44250
C425        C  0.28981462  0.49758103  0.84866691     0.44840
N426        N  0.27899213  0.54001885  0.89165603     0.03730
C427        C  0.26174775  0.49714285  0.09536287    -0.04140
H428        H  0.20779384  0.39792707  0.01427568     0.09230
C429        C  0.11137481  0.48914324  0.96733607    -0.04490
Co430      Co  0.29253959  0.51638757  0.97750219     0.74180
N431        N  0.24246658  0.44728270  0.00148110    -0.23670
Co432      Co  0.21368191  0.48950655  0.02711586     0.74070
C433        C  0.11954235  0.44885992  0.97197499     0.44950
N434        N  0.16751333  0.54169108  0.91477424     0.03350
N435        N  0.16344040  0.47703101  0.00057248     0.03460
N436        N  0.30322654  0.54042925  0.07037257    -0.44520
H437        H  0.30830645  0.45314224  0.89730194     0.09210
N438        N  0.27385950  0.45461654  0.98071976     0.03740
N439        N  0.18985191  0.53804566  0.05016380     0.03480
C440        C  0.18462186  0.58263332  0.09147432     0.45090
N441        N  0.19373915  0.55653782  0.89065454    -0.23130
C442        C  0.30930438  0.60869325  0.99852109    -0.04050
N443        N  0.27955246  0.53404010  0.85409896    -0.44230
N444        N  0.20215263  0.54957197  0.08330315    -0.44460
C445        C  0.30309121  0.64709296  0.97710538     0.44860
N446        N  0.28859059  0.51979587  0.04182719     0.03730
N447        N  0.20798404  0.62078566  0.93873135    -0.23150
N448        N  0.29267577  0.51125554  0.91377402    -0.23640
N449        N  0.17875809  0.61056167  0.96071121     0.03370
H450        H  0.23557531  0.67546621  0.92921515     0.09260
H451        H  0.14334795  0.61796252  0.05043000     0.09290
N452        N  0.26193154  0.49787488  0.05679055    -0.23690
N453        N  0.14164153  0.50409253  0.98414484    -0.23300
N454        N  0.28986198  0.59947710  0.94130683     0.03730
C455        C  0.25939809  0.39424216  0.97351044     0.45130
C456        C  0.19908013  0.53235283  0.86193647    -0.04560
N457        N  0.16724196  0.56376390  0.03209094    -0.23300
H458        H  0.09161481  0.50442847  0.94752705     0.09280
N459        N  0.28443200  0.42288627  0.96180068    -0.44530
H460        H  0.21642055  0.53687701  0.83630472     0.09260
C461        C  0.18696915  0.66903709  0.97362727     0.44960
C462        C  0.29942914  0.48216208  0.88884200    -0.04050
Co463      Co  0.24259496  0.57988990  0.91455397     0.73820
N464        N  0.16139221  0.50554571  0.90686384    -0.44240
C465        C  0.28690634  0.52713073  0.10521764     0.45230
N466        N  0.29279134  0.63701167  0.94189965    -0.44230
Co467      Co  0.16149413  0.55660081  0.97247165     0.73890
C468        C  0.16016587  0.59216502  0.05698145    -0.04560
C469        C  0.23260856  0.41077222  0.00013350    -0.04120
N470        N  0.30163566  0.58029403  0.97317356    -0.23650
N471        N  0.15134987  0.44255211  0.99354654    -0.44410
H472        H  0.23823972  0.48586131  0.11299540     0.09240
C473        C  0.21331021  0.65837192  0.94280273    -0.04540
Cl474      Cl  0.22803414  0.53515456  0.97282850    -0.47540
C475        C  0.18430141  0.49674757  0.87709817     0.44990
H476        H  0.31526207  0.60391562  0.02911562     0.09200
N477        N  0.16582401  0.63836057  0.98161731    -0.44250
C478        C  0.93942552  0.46204169  0.11056215     0.44840
N479        N  0.97036384  0.50664161  0.13463957     0.03730
C480        C  0.15735993  0.49250743  0.19112380    -0.04140
H481        H  0.05703697  0.36352821  0.22066182     0.09230
C482        C  0.98347200  0.42824772  0.28090827    -0.04490
Co483      Co  0.05402638  0.48654638  0.13513813     0.74180
N484        N  0.06509413  0.41733013  0.18828238    -0.23670
Co485      Co  0.08295848  0.45595554  0.22897865     0.74070
C486        C  0.00303970  0.38952016  0.27987210     0.44950
N487        N  0.94766527  0.51316728  0.24629579     0.03350
N488        N  0.04378211  0.43512102  0.26893702     0.03460
N489        N  0.13623309  0.50570896  0.13141762    -0.44520
H490        H  0.99337625  0.43329368  0.08585051     0.09210
N491        N  0.05332678  0.42911597  0.15328366     0.03740
N492        N  0.09763748  0.49555225  0.26808124     0.03480
C493        C  0.13796329  0.54272430  0.26710412     0.45090
N494        N  0.93985322  0.52515200  0.21026407    -0.23130
C495        C  0.08317467  0.56972775  0.11381306    -0.04050
N496        N  0.93527297  0.49371516  0.13062093    -0.44230
N497        N  0.13452568  0.50467750  0.26843712    -0.44460
C498        C  0.07325283  0.60738461  0.12879674     0.44860
N499        N  0.11028597  0.48715939  0.15206891     0.03730
N500        N  0.99253013  0.58656287  0.21347676    -0.23150
N501        N  0.99704994  0.48464668  0.11883408    -0.23640
N502        N  0.00481641  0.57750188  0.24873688     0.03370
H503        H  0.97451294  0.63943561  0.18398815     0.09260
H504        H  0.08556380  0.58582963  0.26576525     0.09290
N505        N  0.12155133  0.47893456  0.18783406    -0.23690
N506        N  0.01145592  0.45499754  0.27487979    -0.23300
N507        N  0.02687942  0.56804934  0.14029117     0.03730
C508        C  0.02550258  0.37549354  0.16429860     0.45130
C509        C  0.90177676  0.52359919  0.20333207    -0.04560
N510        N  0.07307369  0.52487650  0.27160446    -0.23300
H511        H  0.95271905  0.43460314  0.28271800     0.09280
N512        N  0.03045659  0.40425292  0.13802436    -0.44530
H513        H  0.88750015  0.53308815  0.17660942     0.09260
C514        C  0.99803002  0.63918796  0.24520483     0.44960
C515        C  0.97957903  0.45698290  0.10024480    -0.04050
Co516      Co  0.98236898  0.54651728  0.17379403     0.73820
N517        N  0.91485543  0.50270681  0.26486286    -0.44240
C518        C  0.16442985  0.51494166  0.15534185     0.45230
N519        N  0.03811205  0.60338325  0.14437252    -0.44230
Co520      Co  0.00923696  0.51738392  0.26348212     0.73890
C521        C  0.09622417  0.55651719  0.26944459    -0.04560
C522        C  0.05247051  0.38166294  0.19507911    -0.04120
N523        N  0.05390648  0.54649437  0.12427843    -0.23650
N524        N  0.04023849  0.39771085  0.27394157    -0.44410
H525        H  0.17592995  0.48905042  0.21608772     0.09240
C526        C  0.98643681  0.62424859  0.20917099    -0.04540
Cl527      Cl  0.03186396  0.50126895  0.20063449    -0.47540
C528        C  0.88470642  0.50829262  0.23882689     0.44990
H529        H  0.10972364  0.56069460  0.10096140     0.09200
N530        N  0.00917419  0.60884602  0.26931735    -0.44250
C531        C  0.86679310  0.22094994  0.03701736     0.44840
N532        N  0.91027798  0.21538196  0.99055939     0.03730
C533        C  0.10343113  0.28376970  0.00759356    -0.04140
H534        H  0.04651328  0.28412087  0.13185787     0.09230
C535        C  0.92788620  0.34906016  0.09139038    -0.04490
Co536      Co  0.99755599  0.22306940  0.01065956     0.74180
N537        N  0.02591506  0.25822690  0.08124209    -0.23670
Co538      Co  0.02705684  0.30374674  0.04409721     0.74070
C539        C  0.94831565  0.33371901  0.12627378     0.44950
N540        N  0.89050166  0.32488253  0.00692451     0.03350
N541        N  0.98419429  0.32853917  0.07528930     0.03460
N542        N  0.09010348  0.22690809  0.98230402    -0.44520
H543        H  0.91741593  0.22790325  0.08031794     0.09210
N544        N  0.00392339  0.22962560  0.07371932     0.03740
N545        N  0.03012434  0.34847527  0.00634913     0.03480
C546        C  0.05244191  0.38069760  0.95882317     0.45090
N547        N  0.88422197  0.29376958  0.98796505    -0.23130
C548        C  0.02280168  0.22830950  0.91805654    -0.04050
N549        N  0.87273904  0.21472434  0.99923421    -0.44230
N550        N  0.06213314  0.35544166  0.98706368    -0.44460
C551        C  0.00288781  0.23903621  0.88078627     0.44860
N552        N  0.05888351  0.24085812  0.00127756     0.03730
N553        N  0.93486440  0.31328416  0.92492243    -0.23150
N554        N  0.93334771  0.21427566  0.02089517    -0.23640
N555        N  0.93802042  0.34602662  0.94226112     0.03370
H556        H  0.94237659  0.29937732  0.86444196     0.09260
H557        H  0.99494726  0.41299432  0.94778361     0.09290
N558        N  0.06687604  0.27452040  0.01460214    -0.23690
N559        N  0.95251101  0.34523450  0.06135262    -0.23300
N560        N  0.96219986  0.23236115  0.92829019     0.03730
C561        C  0.00759104  0.23324310  0.13702151     0.45130
C562        C  0.84692600  0.29029599  0.98247622    -0.04560
N563        N  0.99993152  0.36839862  0.99290365    -0.23300
H564        H  0.89716906  0.35411122  0.08806465     0.09280
N565        N  0.98976960  0.21469760  0.10733274    -0.44530
H566        H  0.83459243  0.27015465  0.96306990     0.09260
C567        C  0.95563411  0.35891409  0.88354975     0.44960
C568        C  0.90830092  0.22033837  0.05171040    -0.04050
Co569      Co  0.92313026  0.26322620  0.95743223     0.73820
N570        N  0.85777354  0.34409486  0.01309521    -0.44240
C571        C  0.11903561  0.25323966  0.98555607     0.45230
N572        N  0.96551591  0.23922400  0.89052762    -0.44230
Co573      Co  0.94438154  0.34831809  0.00178535     0.73890
C574        C  0.01248044  0.39282722  0.96492937    -0.04560
C575        C  0.03352186  0.25982204  0.11881195    -0.04120
N576        N  0.99495554  0.22396368  0.94632410    -0.23650
N577        N  0.98145182  0.31965575  0.11233382    -0.44410
H578        H  0.11721475  0.30948828  0.01648335     0.09240
C579        C  0.94306029  0.31968303  0.88709583    -0.04540
Cl580      Cl  0.97373927  0.28444958  0.00306058    -0.47540
C581        C  0.82928419  0.32425600  0.99693173     0.44990
H582        H  0.05354383  0.22871718  0.92268381     0.09200
N583        N  0.94826084  0.37395077  0.91806174    -0.44250
C584        C  0.94297422  0.64180593  0.07837601     0.44840
N585        N  0.97045325  0.68427977  0.04185757     0.03730
C586        C  0.15841272  0.74499069  0.07439562    -0.04140
H587        H  0.11510686  0.75014942  0.16007859     0.09230
C588        C  0.97607678  0.81228090  0.09008251    -0.04490
Co589      Co  0.05029577  0.69414206  0.07072816     0.74180
N590        N  0.06244022  0.74939950  0.12729750    -0.23670
Co591      Co  0.07839365  0.78485012  0.07920071     0.74070
C592        C  0.99109984  0.81518729  0.13042615     0.44950
N593        N  0.95080391  0.78958648  0.00421596     0.03350
N594        N  0.03610020  0.82458725  0.08742221     0.03460
N595        N  0.13918273  0.68441502  0.07428159    -0.44520
H596        H  0.98962806  0.64446275  0.12326838     0.09210
N597        N  0.03897986  0.72073533  0.12295466     0.03740
N598        N  0.09696494  0.81486924  0.03137946     0.03480
C599        C  0.14205506  0.80362116  0.98846431     0.45090
N600        N  0.94504959  0.75267821  0.00127674    -0.23130
C601        C  0.09340492  0.67172998  0.99621559    -0.04050
N602        N  0.93869509  0.66432756  0.04576909    -0.44230
N603        N  0.13480940  0.81173177  0.02535972    -0.44460
C604        C  0.08482758  0.66961059  0.95533272     0.44860
N605        N  0.10906420  0.70845456  0.07336072     0.03730
N606        N  0.00504414  0.74641321  0.94342686    -0.23150
N607        N  0.99400755  0.67805918  0.07100137    -0.23640
N608        N  0.01418240  0.78274209  0.94586094     0.03370
H609        H  0.99490894  0.71057433  0.89485020     0.09260
H610        H  0.09458857  0.79515568  0.94238583     0.09290
N611        N  0.11981819  0.74407373  0.07308258    -0.23690
N612        N  0.00581813  0.82030046  0.06483704    -0.23300
N613        N  0.03239926  0.67573995  0.98746189     0.03730
C614        C  0.07499315  0.69934851  0.16960485     0.45130
C615        C  0.90762281  0.74523391  0.00030974    -0.04560
N616        N  0.07580887  0.81270623  0.99969705    -0.23300
H617        H  0.94876901  0.80051830  0.08187088     0.09280
N618        N  0.04073628  0.69570391  0.15244475    -0.44530
H619        H  0.89545367  0.71742445  0.99612872     0.09260
C620        C  0.01321821  0.77294376  0.88356070     0.44960
C621        C  0.97693764  0.65510839  0.09701508    -0.04050
Co622      Co  0.98818339  0.71411375  0.99360276     0.73820
N623        N  0.91672746  0.80904554  0.00393254    -0.44240
C624        C  0.17155509  0.70537945  0.07195584     0.45230
N625        N  0.04642799  0.67216041  0.95221590    -0.44230
Co626      Co  0.01171474  0.80558146  0.00313535     0.73890
C627        C  0.10217400  0.80428553  0.97093672    -0.04560
C628        C  0.08699795  0.73788897  0.15608609    -0.04120
N629        N  0.05933452  0.67370631  0.01465497    -0.23650
N630        N  0.02768455  0.82533198  0.12480888    -0.44410
H631        H  0.17549241  0.77041787  0.07619081     0.09240
C632        C  0.00373741  0.73769725  0.90564729    -0.04540
Cl633      Cl  0.03217511  0.74963932  0.03598392    -0.47540
C634        C  0.88859451  0.78188908  0.00231877     0.44990
H635        H  0.11974849  0.68009344  0.00860150     0.09200
N636        N  0.01880944  0.79991578  0.91065012    -0.44250
C637        C  0.64440275  0.72630472  0.96473072     0.44840
N638        N  0.60256584  0.71829848  0.01123368     0.03730
C639        C  0.42082379  0.81595859  0.98444312    -0.04140
H640        H  0.50157764  0.82864896  0.86469418     0.09230
C641        C  0.61479737  0.87146867  0.92966625    -0.04490
Co642      Co  0.51842642  0.74054353  0.98616955     0.74180
N643        N  0.50841118  0.79318798  0.91685266    -0.23670
Co644      Co  0.50554934  0.83244932  0.95883157     0.74070
C645        C  0.59866407  0.86638140  0.89138643     0.44950
N646        N  0.63758758  0.81910317  0.00669292     0.03350
N647        N  0.55496540  0.85525496  0.93478924     0.03460
N648        N  0.42653713  0.75216944  0.99890225    -0.44520
H649        H  0.59527603  0.74242338  0.92211275     0.09210
N650        N  0.51839754  0.75718012  0.92454445     0.03740
N651        N  0.50335601  0.87265665  0.00055270     0.03480
C652        C  0.48302438  0.91003323  0.04347385     0.45090
N653        N  0.64090010  0.78930539  0.03106630    -0.23130
C654        C  0.48579895  0.73011901  0.07495670    -0.04050
N655        N  0.63978226  0.71623883  0.00221719    -0.44230
N656        N  0.47151739  0.88897548  0.01411606    -0.44460
C657        C  0.50285252  0.73131730  0.11450533     0.44860
N658        N  0.46109280  0.76701128  0.99043285     0.03730
N659        N  0.58628272  0.80390350  0.08848766    -0.23150
N660        N  0.57960827  0.72290905  0.98067023    -0.23640
N661        N  0.58483133  0.83882929  0.07246275     0.03370
H662        H  0.59263030  0.78298893  0.14851765     0.09260
H663        H  0.54316363  0.91732707  0.06862940     0.09290
N664        N  0.45799867  0.80418415  0.98174729    -0.23690
N665        N  0.58595284  0.86281346  0.95463240    -0.23300
N666        N  0.54735136  0.73196956  0.07080522     0.03730
C667        C  0.52022663  0.76594077  0.86143948     0.45130
C668        C  0.67359590  0.79249299  0.05131547    -0.04560
N669        N  0.53457913  0.88150380  0.01974505    -0.23300
H670        H  0.64450523  0.87651494  0.93703014     0.09280
N671        N  0.52705850  0.73949657  0.89155233    -0.44530
H672        H  0.67961478  0.77671379  0.07839876     0.09260
C673        C  0.58695514  0.84799359  0.13319588     0.44960
C674        C  0.60403253  0.73006606  0.95003345    -0.04050
Co675      Co  0.59365387  0.75958807  0.05068485     0.73820
N676        N  0.66956528  0.83875332  0.00564955    -0.44240
C677        C  0.39983828  0.78175515  0.99619902     0.45230
N678        N  0.54083546  0.73193079  0.10842993    -0.44230
Co679      Co  0.58632792  0.85154660  0.01309946     0.73890
C680        C  0.52449160  0.90610665  0.04708029    -0.04560
C681        C  0.50691472  0.80066071  0.87863368    -0.04120
N682        N  0.51604969  0.72988965  0.04926757    -0.23650
N683        N  0.56177589  0.85633005  0.89733504    -0.44410
H684        H  0.40956279  0.84439004  0.97641927     0.09240
C685        C  0.58825440  0.80658079  0.12751622    -0.04540
Cl686      Cl  0.55003707  0.79611700  0.00253204    -0.47540
C687        C  0.68930587  0.82926080  0.03831343     0.44990
H688        H  0.45557255  0.73337998  0.06726274     0.09200
N689        N  0.58481822  0.86549565  0.09815082    -0.44250
C690        C  0.53438766  0.89917016  0.71042207     0.44840
N691        N  0.49333467  0.94234189  0.72798993     0.03730
C692        C  0.51670282  0.14181321  0.73901953    -0.04140
H693        H  0.62233685  0.06625153  0.79653693     0.09230
C694        C  0.53461260  0.04091789  0.89944415    -0.04490
Co695      Co  0.50931198  0.02692754  0.70941869     0.74180
N696        N  0.57497164  0.05254592  0.76008066    -0.23670
Co697      Co  0.53065560  0.07545982  0.78781422     0.74070
C698        C  0.56284775  0.07059798  0.89668276     0.44950
N699        N  0.49486003  0.96088707  0.84324516     0.03350
N700        N  0.54969572  0.05465016  0.83974866     0.03460
N701        N  0.48076591  0.11890719  0.69131139    -0.44520
H702        H  0.57508599  0.94675287  0.68573823     0.09210
N703        N  0.57029219  0.03316305  0.72831027     0.03740
N704        N  0.47932110  0.09440732  0.81068062     0.03480
C705        C  0.42717225  0.12864746  0.81769076     0.45090
N706        N  0.48588883  0.93968156  0.81348506    -0.23130
C707        C  0.41679256  0.04523766  0.69062136    -0.04050
N708        N  0.49993332  0.90518964  0.72661423    -0.44230
N709        N  0.46030533  0.12528798  0.79749458    -0.44460
C710        C  0.37991147  0.02520780  0.70010374     0.44860
N711        N  0.49987900  0.08988487  0.71070833     0.03730
N712        N  0.41121375  0.98621799  0.80049665    -0.23150
N713        N  0.51932935  0.96401974  0.71043606    -0.23640
N714        N  0.42248981  0.00056444  0.83275741     0.03370
H715        H  0.35389553  0.98628952  0.77427143     0.09260
H716        H  0.40556183  0.08621834  0.86438713     0.09290
N717        N  0.51767458  0.10399691  0.73978461    -0.23690
N718        N  0.52760915  0.03356605  0.86244842    -0.23300
N719        N  0.42944803  0.99016050  0.71740611     0.03730
C720        C  0.63112054  0.03026200  0.74360148     0.45130
C721        C  0.51306329  0.91148745  0.81173131    -0.04560
N722        N  0.45917902  0.07386318  0.83588424    -0.23300
H723        H  0.51568084  0.03360486  0.92362699     0.09280
N724        N  0.60460620  0.01810969  0.71729051    -0.44530
H725        H  0.51670721  0.89058494  0.79009820     0.09260
C726        C  0.36260591  0.01706227  0.83086518     0.44960
C727        C  0.54794377  0.93878381  0.69925393    -0.04050
Co728      Co  0.45389964  0.96319826  0.76496161     0.73820
N729        N  0.52850297  0.95074990  0.85902615    -0.44240
C730        C  0.49099452  0.15262046  0.70848833     0.45230
N731        N  0.39150120  0.99116372  0.71502523    -0.44230
Co732      Co  0.47577883  0.01632494  0.84488369     0.73890
C733        C  0.42692724  0.09426806  0.84359517    -0.04560
C734        C  0.61143853  0.05288666  0.77111061    -0.04120
N735        N  0.44649643  0.02053730  0.70141511    -0.23650
N736        N  0.57148329  0.07736318  0.85936292    -0.44410
H737        H  0.52585908  0.15882646  0.76279646     0.09240
C738        C  0.37267180  0.99442835  0.79715588    -0.04540
Cl739      Cl  0.49312296  0.01950324  0.77617970    -0.47540
C740        C  0.54194771  0.92104326  0.83939406     0.44990
H741        H  0.42002573  0.07483796  0.68100481     0.09200
N742        N  0.39476214  0.01728248  0.85159956    -0.44250
C743        C  0.48319216  0.17092207  0.86859665     0.44840
N744        N  0.51966390  0.19491338  0.90990103     0.03730
C745        C  0.45050589  0.20127307  0.09533307    -0.04140
H746        H  0.39414309  0.24710270  0.93387955     0.09230
C747        C  0.39925515  0.32188928  0.94090485    -0.04490
Co748      Co  0.49082270  0.16976273  0.98763927     0.74180
N749        N  0.41649595  0.20758566  0.97858564    -0.23670
Co750      Co  0.43133352  0.24384550  0.02097152     0.74070
C751        C  0.36028326  0.30622116  0.95371314     0.44950
N752        N  0.49591334  0.30201259  0.91394362     0.03350
N753        N  0.40661892  0.28719173  0.99192901     0.03460
N754        N  0.50046742  0.16450939  0.07637619    -0.44520
H755        H  0.46434146  0.12338715  0.91106853     0.09210
N756        N  0.43047399  0.17261342  0.97482671     0.03740
N757        N  0.45304386  0.28373807  0.05508826     0.03480
C758        C  0.47847490  0.29802042  0.10930227     0.45090
N759        N  0.52232279  0.27784465  0.90087446    -0.23130
C760        C  0.57039696  0.15984550  0.02754756    -0.04050
N761        N  0.50829292  0.19850488  0.87353592    -0.44230
N762        N  0.44889892  0.28150170  0.09300312    -0.44460
C763        C  0.60639903  0.18012113  0.02523116     0.44860
N764        N  0.47902488  0.17600809  0.04626669     0.03730
N765        N  0.57324098  0.27942439  0.96141281    -0.23150
N766        N  0.50262772  0.16670209  0.92906811    -0.23640
N767        N  0.55559612  0.30223474  0.98549851     0.03370
H768        H  0.63108230  0.26024571  0.94977731     0.09260
H769        H  0.52922808  0.32754952  0.07548800     0.09290
N770        N  0.45187728  0.20034586  0.05671986    -0.23690
N771        N  0.42653584  0.30879982  0.96768334    -0.23300
N772        N  0.57108271  0.19856031  0.97734182     0.03730
C773        C  0.39413559  0.18544572  0.92359707     0.45130
C774        C  0.52125095  0.27667269  0.86236475    -0.04560
N775        N  0.48249533  0.30407214  0.04206596    -0.23300
H776        H  0.40548869  0.33836384  0.91445943     0.09280
N777        N  0.41493760  0.15760858  0.94370294    -0.44530
H778        H  0.53793487  0.25685801  0.84514426     0.09260
C779        C  0.61856341  0.30096175  0.99754509     0.44960
C780        C  0.48334795  0.14671439  0.90373461    -0.04050
Co781      Co  0.54700911  0.23731642  0.93677321     0.73820
N782        N  0.47162345  0.31252289  0.88487671    -0.44240
C783        C  0.48510167  0.18140362  0.10772770     0.45230
N784        N  0.60506780  0.20356351  0.99367581    -0.44230
Co785      Co  0.49062740  0.30725951  0.97753749     0.73890
C786        C  0.50168524  0.31347465  0.07505776    -0.04560
C787        C  0.40170522  0.21882863  0.94414541    -0.04120
N788        N  0.54966978  0.17386156  0.99747226    -0.23650
N789        N  0.36902219  0.28638451  0.98620867    -0.44410
H790        H  0.43203583  0.21955771  0.11230837     0.09240
C791        C  0.61141209  0.27983535  0.96414420    -0.04540
Cl792      Cl  0.49042341  0.24014016  0.98112827    -0.47540
C793        C  0.48637091  0.29731465  0.85145649     0.44990
H794        H  0.56031332  0.14043564  0.05020930     0.09200
N795        N  0.58248036  0.31441056  0.01030226    -0.44250
C796        C  0.57746046  0.94277173  0.15884090     0.44840
N797        N  0.53942340  0.98697236  0.13579525     0.03730
C798        C  0.56823287  0.16523698  0.21491814    -0.04140
H799        H  0.67576656  0.06394777  0.25903227     0.09230
C800        C  0.59331807  0.96986498  0.28558289    -0.04490
Co801      Co  0.56844651  0.06452198  0.15910459     0.74180
N802        N  0.62652569  0.06666673  0.22079543    -0.23670
Co803      Co  0.58002699  0.08004640  0.25388223     0.74070
C804        C  0.63463195  0.98211380  0.29043808     0.44950
N805        N  0.50871429  0.95489242  0.24344161     0.03350
N806        N  0.59254669  0.03116701  0.28830675     0.03460
N807        N  0.57269989  0.14842719  0.15306835    -0.44520
H808        H  0.61451177  0.98620059  0.18704467     0.09210
N809        N  0.62213469  0.05930324  0.18414862     0.03740
N810        N  0.53264669  0.09461424  0.28519316     0.03480
C811        C  0.48840265  0.13872417  0.27152343     0.45090
N812        N  0.50153276  0.95329632  0.20585152    -0.23130
C813        C  0.48878661  0.10792986  0.15045082    -0.04050
N814        N  0.54556743  0.94946255  0.13768541    -0.44230
N815        N  0.52494404  0.13202955  0.28296942    -0.44460
C816        C  0.44832957  0.09972602  0.14385233     0.44860
N817        N  0.57133277  0.11848422  0.17696756     0.03730
N818        N  0.44704476  0.01464211  0.20444431    -0.23150
N819        N  0.56947039  0.00581513  0.14750767    -0.23640
N820        N  0.45029191  0.01694133  0.24245542     0.03370
H821        H  0.39916592  0.00682675  0.16607855     0.09260
H822        H  0.44569326  0.09162001  0.25696015     0.09290
N823        N  0.57059985  0.12672251  0.21380269    -0.23690
N824        N  0.56915483  0.00204569  0.28539066    -0.23300
N825        N  0.48453383  0.04956401  0.13570571     0.03730
C826        C  0.68033584  0.04289072  0.19749804     0.45130
C827        C  0.49609252  0.91703546  0.19661188    -0.04560
N828        N  0.50220945  0.07327158  0.27980447    -0.23300
H829        H  0.58411143  0.94152169  0.27884387     0.09280
N830        N  0.65478919  0.04824483  0.16829972    -0.44530
H831        H  0.48799479  0.90756348  0.16829567     0.09260
C832        C  0.38892905  0.01406418  0.23080367     0.44960
C833        C  0.59276028  0.97982443  0.16634792    -0.04050
Co834      Co  0.49348790  0.00162381  0.16962291     0.73820
N835        N  0.50904959  0.91981301  0.26074046    -0.44240
C836        C  0.56746624  0.17949107  0.17394284     0.45230
N837        N  0.44841321  0.06291492  0.13479423    -0.44230
Co838      Co  0.50752090  0.01140941  0.26681270     0.73890
C839        C  0.47293386  0.09912630  0.26960482    -0.04560
C840        C  0.66356007  0.06119654  0.23044697    -0.04120
N841        N  0.50988694  0.07622287  0.14165436    -0.23650
N842        N  0.62972137  0.02039962  0.29244742    -0.44410
H843        H  0.56853560  0.18166747  0.24087750     0.09240
C844        C  0.40982910  0.01287351  0.19462862    -0.04540
Cl845      Cl  0.53720986  0.03958776  0.21272636    -0.47540
C846        C  0.50187054  0.89481903  0.23217290     0.44990
H847        H  0.49931950  0.13097754  0.16675975     0.09200
N848        N  0.41559533  0.01558131  0.25981415    -0.44250
C849        C  0.39279879  0.96138123  0.07154764     0.44840
N850        N  0.35700196  0.98417596  0.02527746     0.03730
C851        C  0.29149147  0.17246569  0.00763129    -0.04140
H852        H  0.28826863  0.12657963  0.14230996     0.09230
C853        C  0.21437912  0.99790534  0.08050933    -0.04490
Co854      Co  0.35055430  0.06947703  0.02734812     0.74180
N855        N  0.30240526  0.09096862  0.09375522    -0.23670
Co856      Co  0.25931493  0.09898277  0.05001129     0.74070
C857        C  0.22062048  0.01429284  0.11888143     0.44950
N858        N  0.24673303  0.96307816  0.00273973     0.03350
N859        N  0.22514305  0.05792045  0.07340798     0.03460
N860        N  0.35178834  0.15082674  0.99763195    -0.44520
H861        H  0.40753716  0.02099895  0.09057759     0.09210
N862        N  0.33547232  0.07442695  0.08394074     0.03740
N863        N  0.21968004  0.10946073  0.00644458     0.03480
C864        C  0.21621809  0.14825980  0.95536374     0.45090
N865        N  0.28411177  0.95504017  0.00100540    -0.23130
C866        C  0.34975506  0.08775561  0.93741032    -0.04050
N867        N  0.37094138  0.95172540  0.04125712    -0.44230
N868        N  0.21618393  0.14572877  0.99415840    -0.44460
C869        C  0.34908766  0.06462580  0.90347687     0.44860
N870        N  0.33176186  0.12521028  0.01712221     0.03730
N871        N  0.28481093  0.00012165  0.92938953    -0.23150
N872        N  0.36947680  0.01441025  0.04214334    -0.23640
N873        N  0.25012242  0.01654684  0.93253994     0.03370
H874        H  0.31719529  0.97865354  0.88083975     0.09260
H875        H  0.22045345  0.09617570  0.91575337     0.09290
N876        N  0.29611184  0.13702213  0.02361228    -0.23690
N877        N  0.21744308  0.02721044  0.05352181    -0.23300
N878        N  0.36085039  0.02872124  0.95403295     0.03730
C879        C  0.34854749  0.09598176  0.13963677     0.45130
C880        C  0.29153097  0.91786835  0.00683814    -0.04560
N881        N  0.21814189  0.08484646  0.97840145    -0.23300
H882        H  0.21384067  0.96786678  0.07415055     0.09280
N883        N  0.36243357  0.07600199  0.11029171    -0.44530
H884        H  0.31940473  0.90370486  0.00251985     0.09260
C885        C  0.25849476  0.00918603  0.87010415     0.44960
C886        C  0.39241020  0.00276496  0.07158015    -0.04050
Co887      Co  0.32218045  0.99167859  0.97802435     0.73820
N888        N  0.22699695  0.93058221  0.00770419    -0.44240
C889        C  0.32721164  0.17958279  0.98658609     0.45230
N890        N  0.35825248  0.02913490  0.91629993    -0.44230
Co891      Co  0.22964429  0.02326687  0.99135543     0.73890
C892        C  0.21723246  0.10701348  0.94456690    -0.04560
C893        C  0.30810188  0.10671213  0.12862829    -0.04120
N894        N  0.35950768  0.06337004  0.96764233    -0.23650
N895        N  0.22654147  0.05141460  0.11131546    -0.44410
H896        H  0.26567965  0.19049957  0.00833907     0.09240
C897        C  0.29128078  0.99246152  0.89189162    -0.04540
Cl898      Cl  0.29009989  0.04560034  0.01184373    -0.47540
C899        C  0.25435144  0.90133353  0.01154413     0.44990
H900        H  0.33659428  0.11534202  0.93973652     0.09200
N901        N  0.23361072  0.02329327  0.89760099    -0.44250
C902        C  0.75919350  0.90156457  0.98016516     0.44840
N903        N  0.73301488  0.95780661  0.98288418     0.03730
C904        C  0.76453345  0.13145587  0.06754572    -0.04140
H905        H  0.78625734  0.03229413  0.16554645     0.09230
C906        C  0.66595757  0.96555467  0.12880041    -0.04490
Co907      Co  0.77833265  0.01940717  0.01820831     0.74180
N908        N  0.78729394  0.02628889  0.10462101    -0.23670
Co909      Co  0.73741084  0.05572730  0.09793125     0.74070
C910        C  0.69745963  0.95827217  0.15503956     0.44950
N911        N  0.63607626  0.97573318  0.04173739     0.03350
N912        N  0.70742978  0.00911756  0.11967144     0.03460
N913        N  0.77932226  0.11415471  0.00691098    -0.44520
H914        H  0.81355148  0.92065472  0.01330121     0.09210
N915        N  0.79236022  0.99863977  0.08095446     0.03740
N916        N  0.68905586  0.09037786  0.09848684     0.03480
C917        C  0.65088382  0.13840122  0.10884367     0.45090
N918        N  0.65298342  0.96563574  0.00969492    -0.23130
C919        C  0.78417795  0.04481931  0.92551036    -0.04050
N920        N  0.72833881  0.92324593  0.96983211    -0.44230
N921        N  0.68780068  0.12559775  0.11119355    -0.44460
C922        C  0.75560433  0.04620315  0.89306330     0.44860
N923        N  0.77925379  0.08276275  0.03110996     0.03730
N924        N  0.65070048  0.04614787  0.98101684    -0.23150
N925        N  0.76636841  0.96187622  0.00109227    -0.23640
N926        N  0.63145917  0.05470451  0.01280928     0.03370
H927        H  0.65662345  0.07570558  0.92547521     0.09260
H928        H  0.59837533  0.10451239  0.08998023     0.09290
N929        N  0.76713454  0.09347082  0.06556094    -0.23690
N930        N  0.67243796  0.99928339  0.11007509    -0.23300
N931        N  0.72733501  0.03285868  0.94746346     0.03730
C932        C  0.80147572  0.97500385  0.14261430     0.45130
C933        C  0.65006425  0.92784075  0.00744246    -0.04560
N934        N  0.65506522  0.07878785  0.08827900    -0.23300
H935        H  0.64266008  0.94666861  0.12555868     0.09280
N936        N  0.79780535  0.96585329  0.10324989    -0.44530
H937        H  0.66381140  0.91084467  0.98596825     0.09260
C938        C  0.61703091  0.10061707  0.97227897     0.44960
C939        C  0.78513020  0.92707507  0.00125327    -0.04050
Co940      Co  0.69028779  0.00079086  0.97956573     0.73820
N941        N  0.62405352  0.94599844  0.06283144    -0.44240
C942        C  0.77087786  0.14588696  0.02864596     0.45230
N943        N  0.72178029  0.03787135  0.90973407    -0.44230
Co944      Co  0.64663745  0.02729637  0.06410756     0.73890
C945        C  0.62893515  0.10607729  0.09591047    -0.04560
C946        C  0.79685896  0.01619006  0.14125264    -0.04120
N947        N  0.76353803  0.03639918  0.95851513    -0.23650
N948        N  0.72415921  0.98178068  0.14083296    -0.44410
H949        H  0.75171227  0.14685220  0.09112352     0.09240
C950        C  0.64435389  0.07416214  0.95443125    -0.04540
Cl951      Cl  0.71344056  0.02608627  0.03911026    -0.47540
C952        C  0.63587377  0.91437288  0.04508635     0.44990
H953        H  0.81541152  0.04626806  0.92376403     0.09200
N954        N  0.61057029  0.08669815  0.00864733    -0.44250
C955        C  0.86805967  0.84955272  0.44345616     0.44840
N956        N  0.92827401  0.84233950  0.42907179     0.03730
C957        C  0.04981678  0.72847450  0.40932850    -0.04140
H958        H  0.94087594  0.74990760  0.56365252     0.09230
C959        C  0.02848413  0.82133604  0.58718909    -0.04490
Co960      Co  0.95086183  0.76193693  0.42376105     0.74180
N961        N  0.95648711  0.73629297  0.50433944    -0.23670
Co962      Co  0.01947407  0.74174382  0.49777984     0.74070
C963        C  0.01685559  0.78987450  0.61331654     0.44950
N964        N  0.00883364  0.87458468  0.50072819     0.03350
N965        N  0.01898318  0.77080021  0.55337762     0.03460
N966        N  0.99580502  0.71510229  0.37860079    -0.44520
H967        H  0.85712673  0.78569622  0.43902488     0.09210
N968        N  0.93384679  0.73552433  0.47370413     0.03740
N969        N  0.08113928  0.75319622  0.49315884     0.03480
C970        C  0.14402593  0.75672906  0.48999687     0.45090
N971        N  0.98669287  0.88384398  0.47071775    -0.23130
C972        C  0.93791078  0.80137572  0.34539268    -0.04050
N973        N  0.90135003  0.86834143  0.43703618    -0.44230
N974        N  0.11363968  0.73210302  0.48736628    -0.44460
C975        C  0.94956379  0.83843749  0.32801118     0.44860
N976        N  0.98963621  0.71849500  0.41617553     0.03730
N977        N  0.04661799  0.85679520  0.41629721    -0.23150
N978        N  0.91439663  0.80758254  0.43054808    -0.23640
N979        N  0.06955077  0.85174583  0.44649981     0.03370
H980        H  0.05776714  0.85350546  0.35511680     0.09260
H981        H  0.14213928  0.82077713  0.49967353     0.09290
N982        N  0.02143746  0.72269444  0.43676819    -0.23690
N983        N  0.02892782  0.80713729  0.55150607    -0.23300
N984        N  0.99000910  0.81891708  0.37169324     0.03730
C985        C  0.89169393  0.74419492  0.51918475     0.45130
C986        C  0.96735184  0.91642399  0.47821364    -0.04560
N987        N  0.08960795  0.78913152  0.49784867    -0.23300
H988        H  0.03738304  0.84973261  0.59422214     0.09280
N989        N  0.89653159  0.73830367  0.48156523    -0.44530
H990        H  0.94713029  0.93166497  0.45944342     0.09260
C991        C  0.10770156  0.84980645  0.39716960     0.44960
C992        C  0.87629138  0.80969482  0.43623779    -0.04050
Co993      Co  0.98779669  0.85151522  0.42145843     0.73820
N994        N  0.00658959  0.89952511  0.52821025    -0.44240
C995        C  0.03230015  0.72382345  0.37019810     0.45230
N996        N  0.98605779  0.84127198  0.34022416    -0.44230
Co997      Co  0.04883277  0.83154144  0.49949295     0.73890
C998        C  0.12772803  0.79374575  0.49763532    -0.04560
C999        C  0.93196686  0.74279903  0.53486134    -0.04120
N1000       N  0.96470743  0.79147930  0.37250740    -0.23650
N1001       N  0.01170979  0.75905844  0.59031651    -0.44410
H1002       H  0.07786211  0.74005734  0.41510290     0.09240
C1003       C  0.06834196  0.85600106  0.38405157    -0.04540
Cl1004     Cl  0.00151678  0.79681357  0.46151062    -0.47540
C1005       C  0.98082017  0.92659014  0.51605684     0.44990
H1006       H  0.90899941  0.79008514  0.34561679     0.09200
N1007       N  0.10625743  0.84831955  0.43615679    -0.44250
C1008       C  0.84391552  0.87489569  0.55016828     0.44840
N1009       N  0.83901323  0.93445581  0.55909842     0.03730
C1010       C  0.71023226  0.06018961  0.59947751    -0.04140
H1011       H  0.72171342  0.93868008  0.45673086     0.09230
C1012       C  0.77691599  0.03488657  0.40359232    -0.04490
Co1013     Co  0.76050763  0.96075020  0.58567765     0.74180
N1014       N  0.71710946  0.95974714  0.51540488    -0.23670
Co1015     Co  0.72139079  0.02341131  0.51311624     0.74070
C1016       C  0.74734974  0.01107855  0.38911380     0.44950
N1017       N  0.84608954  0.01319113  0.47003832     0.03350
N1018       N  0.73792601  0.01949564  0.45138026     0.03460
N1019       N  0.71634185  0.00766103  0.63756342    -0.44520
H1020       H  0.78266268  0.86483414  0.57400864     0.09210
N1021       N  0.72268877  0.93992300  0.54844682     0.03740
N1022       N  0.73251444  0.08614461  0.50941066     0.03480
C1023       C  0.73707950  0.14899728  0.50779040     0.45090
N1024       N  0.86016457  0.98549283  0.49323076    -0.23130
C1025       C  0.79493083  0.99598478  0.65854385    -0.04050
N1026       N  0.86377152  0.90710499  0.55027843    -0.44230
N1027       N  0.71318215  0.11885670  0.51810530    -0.44460
C1028       C  0.82778140  0.01964437  0.66473830     0.44860
N1029       N  0.71828851  0.99942999  0.60057374     0.03730
N1030       N  0.85955113  0.04890753  0.55034523    -0.23150
N1031       N  0.80467756  0.92211683  0.56953511    -0.23640
N1032       N  0.83978683  0.07202726  0.52639527     0.03370
H1033       H  0.88855603  0.05918079  0.60354201     0.09260
H1034       H  0.79769053  0.14620674  0.48208975     0.09290
N1035       N  0.71211631  0.02912601  0.57629074    -0.23690
N1036       N  0.77050329  0.03614201  0.44183200    -0.23300
N1037       N  0.83453308  0.99283207  0.61051492     0.03730
C1038       C  0.72497416  0.89429804  0.50812578     0.45130
C1039       C  0.86867167  0.95509621  0.47069312    -0.04560
N1040       N  0.76695875  0.09454316  0.49580645    -0.23300
H1041       H  0.80210098  0.04576262  0.38845547     0.09280
N1042       N  0.72487425  0.90249344  0.54539730    -0.44530
H1043       H  0.87794534  0.92693130  0.48098367     0.09260
C1044       C  0.85022277  0.10616652  0.57453997     0.44960
C1045       C  0.80605145  0.88398108  0.56713139    -0.04050
Co1046     Co  0.85077385  0.99027934  0.55307728     0.73820
N1047       N  0.84406900  0.00354759  0.43425592    -0.44240
C1048       C  0.71344811  0.04555486  0.64090701     0.45230
N1049       N  0.85295659  0.01183424  0.63628176    -0.44230
Co1050     Co  0.80698480  0.05410749  0.48375040     0.73890
C1051       C  0.77166720  0.13226384  0.49229701    -0.04560
C1052       C  0.71960515  0.93270685  0.48761661    -0.04120
N1053       N  0.79970359  0.98354468  0.62262794    -0.23650
N1054       N  0.72347684  0.00246455  0.42038163    -0.44410
H1055       H  0.71063487  0.08978774  0.58910808     0.09240
C1056       C  0.87132807  0.06973405  0.57948672    -0.04540
Cl1057     Cl  0.78451716  0.00713799  0.53373800    -0.47540
C1058       C  0.85550366  0.96747013  0.43138788     0.44990
H1059       H  0.77024406  0.99173744  0.67729928     0.09200
N1060       N  0.83416497  0.10643440  0.53964810    -0.44250
C1061       C  0.16787959  0.92672323  0.40220916     0.44840
N1062       N  0.17184160  0.96262229  0.45049996     0.03730
C1063       C  0.22099300  0.15317767  0.41218293    -0.04140
H1064       H  0.23415852  0.11387722  0.32675707     0.09230
C1065       C  0.30379859  0.97553006  0.39853475    -0.04490
Co1066     Co  0.17396097  0.04411886  0.41990200     0.74180
N1067       N  0.23078604  0.06108016  0.36037926    -0.23670
Co1068     Co  0.26498135  0.07638140  0.40627557     0.74070
C1069       C  0.30485692  0.99029926  0.35748213     0.44950
N1070       N  0.27703544  0.94923984  0.48407372     0.03350
N1071       N  0.30657068  0.03641888  0.39709233     0.03460
N1072       N  0.16074666  0.13182305  0.41870637    -0.44520
H1073       H  0.15942131  0.97663383  0.36012869     0.09210
N1074       N  0.20141486  0.03819783  0.36567478     0.03740
N1075       N  0.29588377  0.09489066  0.45086280     0.03480
C1076       C  0.28628420  0.13990269  0.49165812     0.45090
N1077       N  0.24081771  0.94102896  0.49203055    -0.23130
C1078       C  0.13837024  0.08147638  0.49315894    -0.04050
N1079       N  0.17328312  0.92636462  0.44074475    -0.44230
N1080       N  0.29315029  0.13232697  0.45471069    -0.44460
C1081       C  0.13952205  0.07263570  0.53455234     0.44860
N1082       N  0.18598713  0.10292589  0.41757277     0.03730
N1083       N  0.22937693  0.00124064  0.54530705    -0.23150
N1084       N  0.16412206  0.98621600  0.42064950    -0.23640
N1085       N  0.26541901  0.01249267  0.54113340     0.03370
H1086       H  0.19146543  0.99281839  0.59485089     0.09260
H1087       H  0.27944756  0.09365634  0.54141467     0.09290
N1088       N  0.22155825  0.11497674  0.41441244    -0.23690
N1089       N  0.30633826  0.00626702  0.42161023    -0.23300
N1090       N  0.15792055  0.02350598  0.50444069     0.03730
C1091       C  0.18169989  0.07649155  0.31927009     0.45130
C1092       C  0.23591709  0.90326816  0.49364137    -0.04560
N1093       N  0.29489283  0.07426080  0.48379034    -0.23300
H1094       H  0.29622756  0.94696422  0.40847079     0.09280
N1095       N  0.17697910  0.04191691  0.33655336    -0.44530
H1096       H  0.20881203  0.88907907  0.49923037     0.09260
C1097       C  0.25243010  0.01555408  0.60283286     0.44960
C1098       C  0.16017598  0.96552587  0.38934506    -0.04050
Co1099     Co  0.19901618  0.98204966  0.49822669     0.73820
N1100       N  0.29786940  0.91686611  0.47818597    -0.44240
C1101       C  0.18086803  0.16446381  0.41811204     0.45230
N1102       N  0.15124103  0.03623168  0.53933304    -0.44230
Co1103     Co  0.28972780  0.01064117  0.48314667     0.73890
C1104       C  0.28738043  0.10069803  0.51161747    -0.04560
C1105       C  0.22082135  0.08632030  0.33127663    -0.04120
N1106       N  0.15077348  0.04944476  0.47623809    -0.23650
N1107       N  0.30856044  0.02789754  0.36021748    -0.44410
H1108       H  0.24588175  0.17113452  0.40799963     0.09240
C1109       C  0.21893384  0.00190422  0.58284655    -0.04540
Cl1110     Cl  0.23190769  0.02852761  0.45259757    -0.47540
C1111       C  0.27298038  0.88686353  0.48393861     0.44990
H1112       H  0.13570339  0.10923396  0.47938746     0.09200
N1113       N  0.28066980  0.02125753  0.57527790    -0.44250
C1114       C  0.91655680  0.15847772  0.54918503     0.44840
N1115       N  0.95162591  0.18395356  0.50620638     0.03730
C1116       C  0.14144623  0.21963075  0.54315962    -0.04140
H1117       H  0.03719501  0.24677385  0.65765735     0.09230
C1118       C  0.97188915  0.32460583  0.59926051    -0.04490
Co1119     Co  0.03242210  0.17650372  0.53104489     0.74180
N1120       N  0.04447407  0.21571219  0.60587390    -0.23670
Co1121     Co  0.06611176  0.26003512  0.57113398     0.74070
C1122       C  0.99048242  0.31922332  0.63906429     0.44950
N1123       N  0.93719093  0.29480780  0.50781452     0.03350
N1124       N  0.02885921  0.30113701  0.59239556     0.03460
N1125       N  0.11656958  0.16725291  0.51917033    -0.44520
H1126       H  0.96752328  0.12741082  0.57969479     0.09210
N1127       N  0.02185293  0.19199403  0.58803555     0.03740
N1128       N  0.08643668  0.30226641  0.53582045     0.03480
C1129       C  0.13235687  0.30600996  0.49314362     0.45090
N1130       N  0.92885720  0.26225340  0.49197304    -0.23130
C1131       C  0.06703457  0.16313890  0.44517175    -0.04050
N1132       N  0.91558213  0.18199211  0.51807257    -0.44230
N1133       N  0.12422484  0.30103897  0.53063392    -0.44460
C1134       C  0.05872785  0.18466248  0.40809157     0.44860
N1135       N  0.08965103  0.18821136  0.53555003     0.03730
N1136       N  0.98260186  0.26940241  0.43356469    -0.23150
N1137       N  0.97559457  0.16296638  0.52788469    -0.23640
N1138       N  0.00233969  0.29892356  0.44331671     0.03370
H1139       H  0.96806550  0.24268961  0.38100899     0.09260
H1140       H  0.08642941  0.31598517  0.44457105     0.09290
N1141       N  0.10315336  0.21976614  0.54908339    -0.23690
N1142       N  0.99878999  0.31385904  0.57173243    -0.23300
N1143       N  0.01375868  0.19533552  0.44986919     0.03730
C1144       C  0.98587457  0.22279303  0.62697436     0.45130
C1145       C  0.89103027  0.25680233  0.49071915    -0.04560
N1146       N  0.06586339  0.31223709  0.50459819    -0.23300
H1147       H  0.94240887  0.33396780  0.59288323     0.09280
N1148       N  0.98549077  0.19681343  0.59973205    -0.44530
H1149       H  0.87711528  0.23288290  0.47800680     0.09260
C1150       C  0.00591089  0.29448883  0.37978779     0.44960
C1151       C  0.95539918  0.14302310  0.55460557    -0.04050
Co1152     Co  0.96918938  0.22703231  0.47086974     0.73820
N1153       N  0.90389336  0.31153366  0.52033684    -0.44240
C1154       C  0.14954339  0.18631832  0.52034838     0.45230
N1155       N  0.02554372  0.20316036  0.41454940    -0.44230
Co1156     Co  0.00099150  0.30828140  0.50687812     0.73890
C1157       C  0.09299921  0.31370979  0.47520506    -0.04560
C1158       C  0.02569655  0.22806080  0.63672447    -0.04120
N1159       N  0.03851375  0.17361775  0.47020492    -0.23650
N1160       N  0.02601953  0.30644785  0.63011601    -0.44410
H1161       H  0.16100213  0.24173290  0.55085070     0.09240
C1162       C  0.98016030  0.26667768  0.39538920    -0.04540
Cl1163     Cl  0.01682695  0.24346231  0.51993887    -0.47540
C1164       C  0.87395255  0.28806364  0.51011699     0.44990
H1165       H  0.09330474  0.14783310  0.45282987     0.09200
N1166       N  0.01920288  0.31429067  0.41106321    -0.44250
C1167       C  0.95941589  0.92475469  0.37790309     0.44840
N1168       N  0.00450093  0.96419318  0.36260796     0.03730
C1169       C  0.97305405  0.15227990  0.31421089    -0.04140
H1170       H  0.85029669  0.03599443  0.29466552     0.09230
C1171       C  0.92413323  0.98191081  0.22498188    -0.04490
Co1172     Co  0.97648454  0.04607935  0.36817666     0.74180
N1173       N  0.90502691  0.05173765  0.32001579    -0.23670
Co1174     Co  0.94040339  0.07842329  0.27741607     0.74070
C1175       C  0.88322286  0.99511220  0.23123329     0.44950
N1176       N  0.01295025  0.95783259  0.24934057     0.03350
N1177       N  0.92292606  0.04137058  0.23733780     0.03460
N1178       N  0.99088287  0.12868867  0.37221305    -0.44520
H1179       H  0.92504143  0.97113652  0.40755164     0.09210
N1180       N  0.91894429  0.04400306  0.35501339     0.03740
N1181       N  0.97666495  0.10123136  0.23593554     0.03480
C1182       C  0.01787615  0.14687277  0.22821665     0.45090
N1183       N  0.02643245  0.94827501  0.28417953    -0.23130
C1184       C  0.05814097  0.07964766  0.38823393    -0.04050
N1185       N  0.99452966  0.92802788  0.36175102    -0.44230
N1186       N  0.98069685  0.13870743  0.23410006    -0.44460
C1187       C  0.09754422  0.07222571  0.37418694     0.44860
N1188       N  0.97239923  0.10310964  0.35322805     0.03730
N1189       N  0.08001917  0.00718336  0.28309742    -0.23150
N1190       N  0.97833460  0.98603540  0.37923163    -0.23640
N1191       N  0.07042817  0.01921923  0.24762439     0.03370
H1192       H  0.13198909  0.98583267  0.30885591     0.09260
H1193       H  0.06746654  0.10137784  0.22103789     0.09290
N1194       N  0.96136213  0.11586113  0.31843932    -0.23690
N1195       N  0.94688383  0.01307918  0.22831614    -0.23300
N1196       N  0.06075831  0.02529512  0.36176732     0.03730
C1197       C  0.86623704  0.01282552  0.35505999     0.45130
C1198       C  0.03161652  0.91070347  0.28815300    -0.04560
N1199       N  0.00842680  0.08142353  0.22739516    -0.23300
H1200       H  0.93472647  0.95269209  0.22267447     0.09280
N1201       N  0.89573698  0.02338633  0.37669298    -0.44530
H1202       H  0.04467451  0.89596584  0.31272825     0.09260
C1203       C  0.13280849  0.01219086  0.24867216     0.44960
C1204       C  0.95022504  0.96271495  0.39200410    -0.04050
Co1205     Co  0.04275025  0.98640186  0.32363373     0.73820
N1206       N  0.00739618  0.92662141  0.22881792    -0.44240
C1207       C  0.99670113  0.15871798  0.34786650     0.45230
N1208       N  0.09666085  0.03700699  0.36035725    -0.44230
Co1209     Co  0.00948846  0.01829993  0.23515483     0.73890
C1210       C  0.03679866  0.10811753  0.22335690    -0.04560
C1211       C  0.87043640  0.03444711  0.31831966    -0.04120
N1212       N  0.03669876  0.05012629  0.37728608    -0.23650
N1213       N  0.88609275  0.03250815  0.23686050    -0.44410
H1214       H  0.96794302  0.17198031  0.28991105     0.09240
C1215       C  0.11772537  0.00160567  0.28560846    -0.04540
Cl1216     Cl  0.99245332  0.03228069  0.30084153    -0.47540
C1217       C  0.01858225  0.89605905  0.25268301     0.44990
H1218       H  0.04756574  0.10508931  0.40133518     0.09200
N1219       N  0.10203427  0.02180121  0.22488941    -0.44250
C1220       C  0.11344954  0.12211963  0.62203346     0.44840
N1221       N  0.05877939  0.10917310  0.64713936     0.03730
C1222       C  0.96962328  0.12847729  0.80101047    -0.04140
H1223       H  0.09604389  0.99086690  0.79072159     0.09230
C1224       C  0.01161066  0.93933639  0.71341603    -0.04490
Co1225     Co  0.05538313  0.11914137  0.73075567     0.74180
N1226       N  0.07157289  0.04714844  0.77466790    -0.23670
Co1227     Co  0.00870396  0.04214742  0.77761818     0.74070
C1228       C  0.02612219  0.92088832  0.74863430     0.44950
N1229       N  0.00196703  0.01430253  0.64217001     0.03350
N1230       N  0.01733117  0.98229623  0.75766724     0.03460
N1231       N  0.02162893  0.16343716  0.79015561    -0.44520
H1232       H  0.14140464  0.12943534  0.68185809     0.09210
N1233       N  0.08803396  0.07704685  0.75693017     0.03740
N1234       N  0.94654725  0.03491295  0.77295745     0.03480
C1235       C  0.88319027  0.03109515  0.77399845     0.45090
N1236       N  0.01090662  0.04717643  0.62468527    -0.23130
C1237       C  0.00323519  0.19222041  0.71464327    -0.04050
N1238       N  0.07698759  0.11335157  0.61382872    -0.44230
N1239       N  0.91440308  0.04789686  0.79083186    -0.44460
C1240       C  0.96201282  0.19416388  0.70219377     0.44860
N1241       N  0.02867019  0.12699595  0.78297894     0.03730
N1242       N  0.94342023  0.08643513  0.65524724    -0.23150
N1243       N  0.08118774  0.11425635  0.67719604    -0.23640
N1244       N  0.93378190  0.05398153  0.67205284     0.03370
H1245       H  0.91044234  0.13917721  0.64395975     0.09260
H1246       H  0.88399213  0.99309954  0.72222986     0.09290
N1247       N  0.99989721  0.10397295  0.79157601    -0.23690
N1248       N  0.00685030  0.97606396  0.72168604    -0.23300
N1249       N  0.99077095  0.14362616  0.68248067     0.03730
C1250       C  0.13590972  0.03771949  0.76494174     0.45130
C1251       C  0.01981292  0.04181955  0.58757914    -0.04560
N1252       N  0.93728725  0.01354338  0.74414498    -0.23300
H1253       H  0.00009706  0.92630709  0.68806540     0.09280
N1254       N  0.12550762  0.07258847  0.75072233    -0.44530
H1255       H  0.02432748  0.06430501  0.56556087     0.09260
C1256       C  0.88187310  0.08886383  0.67468458     0.44960
C1257       C  0.11710115  0.12186444  0.66425841    -0.04050
Co1258     Co  0.00101465  0.09741083  0.65108753     0.73820
N1259       N  0.00286671  0.98609239  0.61790197    -0.44240
C1260       C  0.98450817  0.16907159  0.79992864     0.45230
N1261       N  0.95780406  0.16259926  0.68273905    -0.44230
Co1262     Co  0.97096948  0.01377424  0.69414767     0.73890
C1263       C  0.89946675  0.00606364  0.74538050    -0.04560
C1264       C  0.10020040  0.02020567  0.78055651    -0.04120
N1265       N  0.01665924  0.15790175  0.70464737    -0.23650
N1266       N  0.02851217  0.94891874  0.77561564    -0.44410
H1267       H  0.94000358  0.11990911  0.80546453     0.09240
C1268       C  0.91147334  0.10951463  0.65317086    -0.04540
Cl1269     Cl  0.01014409  0.06694960  0.71336521    -0.47540
C1270       C  0.01413658  0.00137686  0.58323346     0.44990
H1271       H  0.01914033  0.21119648  0.73227027     0.09200
N1272       N  0.89822064  0.05503348  0.68436702    -0.44250
C1273       C  0.99937560  0.27828964  0.24415259     0.02950
C1274       C  0.01970227  0.25519963  0.27059017     0.02950
C1275       C  0.75183255  0.95671413  0.25503546     0.02950
C1276       C  0.77880169  0.96665841  0.28175667     0.02950
C1277       C  0.00280786  0.75625146  0.23540840     0.02950
C1278       C  0.01786915  0.77894185  0.26277718     0.02950
C1279       C  0.27333947  0.98988998  0.22285906     0.02950
C1280       C  0.24884327  0.98714740  0.25376005     0.02950
C1281       C  0.26910127  0.27219046  0.46567500     0.02950
C1282       C  0.23992078  0.24983022  0.47946520     0.02950
C1283       C  0.72940039  0.29433071  0.50380442     0.02950
C1284       C  0.75627634  0.26592788  0.51345756     0.02950
C1285       C  0.28739238  0.74440208  0.45452142     0.02950
C1286       C  0.25976746  0.77148135  0.46441771     0.02950
C1287       C  0.27271907  0.02856989  0.74875538     0.02950
C1288       C  0.24368024  0.02160143  0.72327289     0.02950
C1289       C  0.22800883  0.28381819  0.94540781     0.02950
C1290       C  0.25597108  0.25821417  0.93352392     0.02950
C1291       C  0.25564412  0.75887551  0.98855469     0.02950
C1292       C  0.27919812  0.78849970  0.99655132     0.02950
C1293       C  0.51949245  0.75266571  0.24612974     0.02950
C1294       C  0.50337680  0.77787803  0.21915120     0.02950
C1295       C  0.48721576  0.27594623  0.25086454     0.02950
C1296       C  0.48388158  0.25033030  0.22225865     0.02950
C1297       C  0.48912944  0.28776886  0.72309532     0.02950
C1298       C  0.47040276  0.26024980  0.74486598     0.02950
C1299       C  0.99872664  0.30309146  0.77979862     0.02950
C1300       C  0.97806298  0.28070670  0.75590147     0.02950
C1301       C  0.75832136  0.28167040  0.03519087     0.02950
C1302       C  0.72846197  0.25789487  0.02667148     0.02950
C1303       C  0.26760831  0.52121755  0.23743882     0.02950
C1304       C  0.24509489  0.54504201  0.21388760     0.02950
C1305       C  0.73797880  0.49921732  0.26395842     0.02950
C1306       C  0.76335138  0.49865139  0.23312331     0.02950
C1307       C  0.27335205  0.46881860  0.71356634     0.02950
C1308       C  0.24484812  0.47002857  0.74169876     0.02950
C1309       C  0.00929084  0.77499121  0.76125154     0.02950
C1310       C  0.01499066  0.80501227  0.73462047     0.02950
C1311       C  0.74247767  0.03976149  0.77462633     0.02950
C1312       C  0.76710386  0.05345224  0.74679234     0.02950
C1313       C  0.77541757  0.76078835  0.97977127     0.02950
C1314       C  0.74575240  0.78500938  0.96826001     0.02950
C1315       C  0.74432698  0.57315489  0.73687666     0.02950
C1316       C  0.76989592  0.58842935  0.76178433     0.02950
C1317       C  0.75911769  0.76064710  0.51428356     0.02950
C1318       C  0.78310928  0.79061008  0.51532083     0.02950
C1319       C  0.55974910  0.75970786  0.72060772     0.02950
C1320       C  0.55606034  0.78770323  0.74735324     0.02950
C1321       C  0.84325974  0.04736363  0.76786082    -0.10890
C1322       C  0.80944588  0.05381020  0.75690186    -0.12450
C1323       C  0.96663588  0.24113306  0.77239255    -0.10890
C1324       C  0.96711822  0.20794587  0.78806747    -0.12450
C1325       C  0.17222096  0.02057920  0.75251862    -0.10890
C1326       C  0.20426673  0.01708077  0.73818438    -0.12450
C1327       C  0.02145508  0.84458968  0.74743830    -0.10890
C1328       C  0.02548055  0.87874525  0.75387559    -0.12450
C1329       C  0.20730873  0.99538432  0.24712494    -0.10890
C1330       C  0.17347501  0.00442936  0.24080405    -0.12450
C1331       C  0.01803366  0.82053389  0.25452508    -0.10890
C1332       C  0.01665478  0.85509277  0.24785380    -0.12450
C1333       C  0.81995565  0.96991056  0.26856901    -0.10890
C1334       C  0.85064580  0.97571195  0.25100829    -0.12450
C1335       C  0.03154103  0.18292455  0.24488123    -0.10890
C1336       C  0.03051417  0.21484002  0.25969958    -0.12450
C1337       C  0.97578880  0.30898459  0.67952694    -0.10890
C1338       C  0.97306949  0.29533582  0.71371800    -0.12450
C1339       C  0.83181615  0.28746076  0.51843611    -0.10890
C1340       C  0.79782715  0.27684663  0.51802957    -0.12450
C1341       C  0.16832695  0.28600809  0.47993625    -0.10410
C1342       C  0.19964918  0.26769265  0.47976653    -0.12450
C1343       C  0.02366945  0.28583913  0.34178965    -0.10890
C1344       C  0.02654267  0.27027305  0.31015380    -0.12450
C1345       C  0.06272257  0.17436502  0.36852529    -0.10890
C1346       C  0.03668653  0.16981941  0.34595048    -0.12450
C1347       C  0.95355224  0.23455578  0.64975159    -0.10890
C1348       C  0.94469727  0.22628075  0.68243334    -0.12450
C1349       C  0.25028777  0.02135403  0.68055861    -0.10890
C1350       C  0.25441221  0.01991591  0.64515871    -0.12450
C1351       C  0.25012549  0.20914330  0.49301009    -0.10890
C1352       C  0.26489426  0.17658744  0.49889806    -0.12450
C1353       C  0.27711061  0.84600037  0.47511476    -0.10890
C1354       C  0.27035198  0.81207586  0.47004897    -0.12450
C1355       C  0.26446826  0.98054722  0.29350210    -0.10890
C1356       C  0.28223822  0.97874815  0.32427847    -0.12450
C1357       C  0.16730098  0.19091608  0.48371079    -0.10890
C1358       C  0.17392465  0.18748849  0.45000432    -0.12450
C1359       C  0.12143733  0.09894885  0.35195943    -0.10890
C1360       C  0.14926530  0.10103229  0.33015815    -0.12450
C1361       C  0.14658961  0.09873361  0.56414558    -0.10890
C1362       C  0.14193539  0.11502934  0.59367307    -0.12450
C1363       C  0.73546871  0.19058870  0.51558839    -0.10890
C1364       C  0.74435224  0.22475904  0.51656543    -0.12450
C1365       C  0.76600495  0.97865896  0.32129480    -0.10890
C1366       C  0.75379920  0.99063530  0.35254622    -0.12450
C1367       C  0.73274846  0.06109876  0.67533078    -0.10890
C1368       C  0.75052423  0.06155193  0.70663236    -0.12450
C1369       C  0.74804763  0.85982756  0.49851832    -0.10890
C1370       C  0.76698985  0.82960981  0.50373945    -0.12450
C1371       C  0.88720976  0.15939601  0.57729580    -0.10890
C1372       C  0.86140057  0.14083558  0.58904323    -0.12450
C1373       C  0.85426246  0.95325846  0.39260765    -0.10890
C1374       C  0.85433181  0.97352912  0.36294511    -0.12450
C1375       C  0.84098034  0.08921875  0.67108409    -0.10890
C1376       C  0.82306779  0.06020985  0.66992824    -0.12450
C1377       C  0.21888717  0.76036639  0.47143636    -0.10890
C1378       C  0.18495598  0.75274954  0.47867229    -0.12450
C1379       C  0.03168808  0.76241551  0.30124115    -0.10890
C1380       C  0.03814176  0.74577887  0.33300458    -0.12450
C1381       C  0.01469625  0.79809681  0.69170708    -0.10890
C1382       C  0.01482572  0.79180930  0.65649943    -0.12450
C1383       C  0.85672795  0.76646677  0.52982447    -0.10890
C1384       C  0.82431703  0.78178973  0.52623816    -0.12450
C1385       C  0.84453649  0.86002728  0.51284263    -0.10890
C1386       C  0.84912602  0.85589040  0.47889949    -0.12450
C1387       C  0.15973888  0.89375664  0.38158186    -0.10890
C1388       C  0.13961381  0.86697969  0.37857353    -0.12450
C1389       C  0.92814795  0.87244321  0.33921534    -0.10890
C1390       C  0.93271354  0.90015879  0.35885914    -0.12450
C1391       C  0.98557441  0.96405585  0.52839228    -0.10890
C1392       C  0.99932343  0.98649524  0.54906512    -0.12450
C1393       C  0.73828513  0.21652413  0.01932258    -0.10890
C1394       C  0.75291067  0.18382365  0.01710119    -0.12450
C1395       C  0.75164494  0.82662395  0.97023721    -0.10890
C1396       C  0.75881878  0.86018505  0.97543446    -0.12450
C1397       C  0.75942775  0.04334614  0.85091649    -0.10890
C1398       C  0.75287955  0.04018189  0.81625996    -0.12450
C1399       C  0.78484761  0.95557339  0.18005045    -0.10890
C1400       C  0.76746074  0.95229428  0.21271011    -0.12450
C1401       C  0.26242148  0.82728758  0.00199237    -0.10890
C1402       C  0.25127698  0.86030630  0.00672032    -0.12450
C1403       C  0.23236393  0.18375294  0.93632391    -0.10890
C1404       C  0.24566516  0.21645695  0.93138706    -0.12450
C1405       C  0.26565926  0.02406388  0.79198477    -0.10890
C1406       C  0.25914060  0.01822025  0.82725018    -0.12450
C1407       C  0.25744553  0.99184556  0.18327606    -0.10890
C1408       C  0.23985786  0.99684474  0.15282856    -0.12450
C1409       C  0.47903188  0.17541246  0.24896203    -0.10890
C1410       C  0.47947205  0.20825338  0.23338814    -0.12450
C1411       C  0.50006766  0.81893620  0.22752996    -0.10890
C1412       C  0.50073301  0.85304992  0.23411176    -0.12450
C1413       C  0.31466427  0.99623849  0.22895602    -0.10890
C1414       C  0.34839073  0.00415308  0.23388967    -0.12450
C1415       C  0.70880940  0.95704294  0.26889873    -0.10890
C1416       C  0.67429379  0.96429679  0.27988668    -0.12450
C1417       C  0.41298970  0.11796431  0.15793882    -0.10890
C1418       C  0.37783793  0.11689656  0.15887551    -0.12450
C1419       C  0.68828539  0.97152101  0.19197571    -0.10890
C1420       C  0.68816336  0.00337075  0.20438763    -0.12450
C1421       C  0.68757859  0.27419599  0.02344220    -0.10890
C1422       C  0.65504686  0.28967796  0.01831393    -0.12450
C1423       C  0.29644239  0.27300705  0.92890704    -0.10890
C1424       C  0.32660579  0.29105167  0.93303206    -0.12450
C1425       C  0.46551665  0.28408010  0.81750999    -0.10890
C1426       C  0.46159397  0.26943015  0.78586448    -0.12450
C1427       C  0.48786109  0.28365003  0.14919688    -0.10890
C1428       C  0.48628693  0.26635090  0.18124968    -0.12450
C1429       C  0.53606452  0.20129208  0.15796269    -0.10890
C1430       C  0.50966803  0.19747626  0.13587406    -0.12450
C1431       C  0.32814606  0.18713460  0.94541337    -0.10890
C1432       C  0.35283684  0.18395655  0.92075206    -0.12450
C1433       C  0.64306944  0.17359692  0.08817313    -0.10890
C1434       C  0.62968841  0.18593444  0.05819861    -0.12450
C1435       C  0.70405336  0.02736210  0.76259725    -0.10890
C1436       C  0.67216230  0.02262036  0.74876854    -0.12450
C1437       C  0.31137912  0.03786001  0.73231611    -0.10890
C1438       C  0.34257186  0.03937542  0.71498888    -0.12450
C1439       C  0.47018667  0.18951574  0.71407007    -0.10890
C1440       C  0.46608991  0.22102502  0.72914175    -0.12450
C1441       C  0.55785663  0.82900260  0.73430344    -0.10890
C1442       C  0.55381847  0.86213981  0.72082490    -0.12450
C1443       C  0.42155078  0.16518468  0.83313708    -0.10890
C1444       C  0.44694659  0.17978498  0.85014299    -0.12450
C1445       C  0.33389736  0.07011755  0.86441418    -0.10890
C1446       C  0.33752252  0.05015844  0.83644694    -0.12450
C1447       C  0.58547752  0.11242360  0.94907215    -0.10890
C1448       C  0.56759297  0.09898595  0.92400392    -0.12450
C1449       C  0.32187631  0.78292805  0.99895791    -0.10890
C1450       C  0.35737517  0.77971806  0.99882903    -0.12450
C1451       C  0.67768952  0.75076838  0.95520661    -0.10890
C1452       C  0.70748844  0.76915871  0.95815318    -0.12450
C1453       C  0.48925840  0.74968601  0.14942283    -0.10890
C1454       C  0.49228141  0.76470037  0.18069104    -0.12450
C1455       C  0.54573158  0.77691471  0.78830900    -0.10890
C1456       C  0.53579801  0.76725836  0.82156966    -0.12450
C1457       C  0.60523075  0.89011424  0.85794100    -0.10890
C1458       C  0.58175205  0.90895749  0.83983335    -0.12450
C1459       C  0.59183294  0.87114211  0.16589258    -0.10890
C1460       C  0.58971659  0.90482592  0.17210493    -0.12450
C1461       C  0.45665191  0.92549425  0.07037422    -0.10890
C1462       C  0.42706984  0.94024846  0.08035725    -0.12450
C1463       C  0.66141962  0.88709632  0.06560118    -0.10890
C1464       C  0.68352323  0.85970201  0.06464441    -0.12450
C1465       C  0.84694889  0.78542043  0.99570944    -0.10890
C1466       C  0.81388907  0.77568908  0.98910726    -0.12450
C1467       C  0.17954016  0.78295576  0.97939897    -0.10890
C1468       C  0.21305618  0.76865828  0.98115391    -0.12450
C1469       C  0.01251464  0.77858338  0.84039795    -0.10890
C1470       C  0.01112843  0.77891965  0.80442790    -0.12450
C1471       C  0.98387986  0.79096183  0.16578210    -0.10890
C1472       C  0.98944945  0.77306016  0.19697511    -0.12450
C1473       C  0.79811048  0.26245203  0.04561239    -0.10890
C1474       C  0.82969553  0.24316336  0.04807195    -0.12450
C1475       C  0.01145898  0.28617023  0.81837989    -0.10890
C1476       C  0.01429525  0.26501446  0.84790773    -0.12450
C1477       C  0.18849832  0.26996537  0.95558059    -0.10890
C1478       C  0.15687463  0.25740503  0.96603431    -0.12450
C1479       C  0.99184957  0.24513718  0.17478745    -0.10890
C1480       C  0.99071707  0.26240439  0.20545157    -0.12450
C1481       C  0.84223920  0.50177142  0.24312230    -0.10890
C1482       C  0.80660709  0.49937765  0.23923361    -0.12450
C1483       C  0.17349038  0.55818896  0.24687007    -0.10890
C1484       C  0.20557025  0.55786012  0.22962196    -0.12450
C1485       C  0.00145525  0.68010763  0.24966275    -0.10890
C1486       C  0.00168513  0.71471326  0.24350743    -0.12450
C1487       C  0.98980637  0.35204794  0.26636219    -0.10890
C1488       C  0.99003575  0.31917680  0.25388085    -0.12450
C1489       C  0.95568053  0.35394846  0.16040933    -0.10890
C1490       C  0.98596736  0.36531223  0.17224869    -0.12450
C1491       C  0.09777086  0.63581358  0.14511944    -0.10890
C1492       C  0.09896900  0.66576677  0.16199520    -0.12450
C1493       C  0.27312025  0.47952731  0.81439927    -0.10890
C1494       C  0.25730377  0.47363940  0.78306168    -0.12450
C1495       C  0.27564498  0.54768040  0.14084501    -0.10890
C1496       C  0.25954883  0.55198866  0.17283940    -0.12450
C1497       C  0.27328873  0.71858056  0.98900640    -0.10890
C1498       C  0.28890529  0.68592393  0.98883440    -0.12450
C1499       C  0.25169957  0.35639869  0.95768664    -0.10890
C1500       C  0.23890212  0.32447591  0.95141581    -0.12450
C1501       C  0.17110574  0.55573423  0.15393415    -0.10890
C1502       C  0.17474335  0.58320255  0.13176043    -0.12450
C1503       C  0.08123313  0.40077837  0.93942872    -0.10890
C1504       C  0.10534628  0.42235505  0.94690813    -0.12450
C1505       C  0.19601336  0.69735410  0.04011333    -0.10890
C1506       C  0.19818242  0.68818495  0.00705024    -0.12450
C1507       C  0.20258439  0.47206271  0.72969924    -0.10890
C1508       C  0.16938883  0.47920003  0.71667866    -0.12450
C1509       C  0.00290359  0.37758207  0.75479801    -0.10890
C1510       C  0.00508959  0.34401000  0.76747911    -0.12450
C1511       C  0.00424659  0.70482066  0.73235972    -0.10890
C1512       C  0.00362101  0.73638776  0.74655027    -0.12450
C1513       C  0.81090780  0.59270370  0.74853965    -0.10890
C1514       C  0.84430803  0.58933236  0.73594352    -0.12450
C1515       C  0.18104369  0.46275223  0.85616618    -0.10890
C1516       C  0.15907008  0.45483679  0.83157973    -0.12450
C1517       C  0.01541091  0.39406692  0.86966049    -0.10890
C1518       C  0.99281429  0.36860107  0.86828277    -0.12450
C1519       C  0.10747703  0.67776663  0.88745593    -0.10890
C1520       C  0.10813820  0.67922715  0.92215103    -0.12450
C1521       C  0.75043951  0.32509204  0.02822589    -0.10890
C1522       C  0.74107964  0.35880715  0.01646403    -0.12450
C1523       C  0.76326837  0.68523067  0.98908943    -0.10890
C1524       C  0.76914388  0.71935872  0.98410513    -0.12450
C1525       C  0.73741148  0.50095610  0.15897924    -0.10890
C1526       C  0.74765211  0.49911102  0.19309778    -0.12450
C1527       C  0.75664441  0.59417734  0.80282187    -0.10890
C1528       C  0.73896439  0.58976686  0.83402490    -0.12450
C1529       C  0.86700564  0.60773671  0.89188344    -0.10890
C1530       C  0.89651245  0.62518235  0.88753923    -0.12450
C1531       C  0.88236924  0.42052240  0.10459718    -0.10890
C1532       C  0.91228094  0.43279868  0.11431281    -0.12450
C1533       C  0.81013696  0.34093525  0.96480485    -0.10890
C1534       C  0.81860571  0.35285481  0.93327451    -0.12450
C1535       C  0.94393758  0.57967716  0.04561449    -0.10890
C1536       C  0.94509664  0.60214893  0.07085266    -0.12450
C1537       C  0.26119444  0.46279685  0.67241328    -0.10890
C1538       C  0.24558261  0.46305338  0.64001025    -0.12450
C1539       C  0.24514457  0.51304821  0.31162064    -0.10890
C1540       C  0.25493690  0.51409922  0.27766122    -0.12450
C1541       C  0.27333890  0.70344681  0.44921136    -0.10890
C1542       C  0.25541090  0.67235154  0.45035528    -0.12450
C1543       C  0.25742488  0.34831616  0.46506511    -0.10890
C1544       C  0.26297351  0.31389430  0.46328285    -0.12450
C1545       C  0.53600314  0.68678789  0.74396552    -0.10890
C1546       C  0.54867821  0.71894908  0.73335178    -0.12450
C1547       C  0.67198453  0.56021889  0.76785462    -0.10890
C1548       C  0.70381018  0.56617514  0.75194747    -0.12450
C1549       C  0.31470705  0.47784036  0.72429395    -0.10890
C1550       C  0.34685115  0.48891536  0.73525196    -0.12450
C1551       C  0.48923365  0.35879151  0.75361514    -0.10890
C1552       C  0.48957583  0.32781786  0.73739368    -0.12450
C1553       C  0.39050502  0.45779250  0.63868969    -0.10890
C1554       C  0.35952906  0.47530248  0.63862655    -0.12450
C1555       C  0.79186214  0.68993552  0.52509370    -0.10890
C1556       C  0.77509226  0.72141877  0.52404159    -0.12450
C1557       C  0.77386251  0.55184410  0.66604527    -0.10890
C1558       C  0.75885559  0.56179291  0.69719409    -0.12450
C1559       C  0.75086586  0.36779550  0.49254757    -0.10890
C1560       C  0.74194803  0.33412753  0.49613549    -0.12450
C1561       C  0.76476465  0.50237128  0.33658147    -0.10890
C1562       C  0.75296585  0.49834429  0.30377007    -0.12450
C1563       C  0.67763503  0.59365379  0.66194045    -0.10890
C1564       C  0.67008623  0.56353103  0.67774710    -0.12450
C1565       C  0.68638896  0.77352107  0.48645125    -0.10890
C1566       C  0.71930184  0.76758624  0.49900336    -0.12450
C1567       C  0.56936513  0.77254711  0.67885962    -0.10890
C1568       C  0.57012081  0.78851521  0.64560480    -0.12450
C1569       C  0.32975737  0.75695437  0.45453496    -0.10890
C1570       C  0.36112916  0.77383055  0.45933557    -0.12450
C1571       C  0.52048447  0.77257953  0.32060040    -0.10890
C1572       C  0.52208859  0.76419326  0.28660018    -0.12450
C1573       C  0.33228518  0.72090485  0.55434661    -0.10890
C1574       C  0.32002835  0.70460855  0.52813952    -0.12450
C1575       C  0.57141236  0.65875746  0.64972948    -0.10890
C1576       C  0.55302753  0.68788663  0.65741941    -0.12450
C1577       C  0.63480243  0.71414135  0.55442406    -0.10890
C1578       C  0.66825265  0.71483323  0.54360463    -0.12450
C1579       C  0.65969178  0.50765432  0.25639099    -0.10890
C1580       C  0.69520043  0.50354257  0.25863380    -0.12450
C1581       C  0.30576698  0.50550874  0.22393620    -0.10890
C1582       C  0.33763355  0.49931828  0.20884552    -0.12450
C1583       C  0.49020485  0.31747027  0.24017346    -0.10890
C1584       C  0.49317163  0.35151857  0.23054256    -0.12450
C1585       C  0.53042161  0.71290634  0.23595378    -0.10890
C1586       C  0.53345684  0.68018634  0.22429686    -0.12450
C1587       C  0.33558151  0.60762478  0.36185967    -0.10890
C1588       C  0.32088731  0.60392555  0.33038709    -0.12450
C1589       C  0.41226938  0.68768617  0.35885156    -0.10890
C1590       C  0.41869104  0.68975861  0.39302458    -0.12450
C1591       C  0.59231426  0.60775426  0.37061070    -0.10890
C1592       C  0.55958429  0.59799284  0.36891287    -0.12450
C1593       C  0.51641865  0.26011795  0.65612678    -0.10890
C1594       C  0.50838693  0.27639545  0.68630569    -0.12450
C1595       C  0.48920931  0.26257803  0.29216627    -0.10890
C1596       C  0.49229113  0.25345302  0.32676388    -0.12450
C1597       C  0.33839945  0.23708951  0.45641522    -0.10890
C1598       C  0.30773221  0.25529991  0.45744655    -0.12450
C1599       C  0.65205801  0.28295922  0.50143890    -0.10890
C1600       C  0.68732753  0.28679603  0.50223146    -0.12450
C1601       C  0.38500844  0.36299960  0.36064782    -0.10890
C1602       C  0.38731679  0.38924519  0.33776373    -0.12450
C1603       C  0.34050460  0.37612969  0.56508538    -0.10890
C1604       C  0.36013840  0.40419532  0.55800876    -0.12450
C1605       C  0.47632124  0.35321897  0.65061644    -0.10890
C1606       C  0.50994576  0.36019915  0.65356737    -0.12450
C1607       C  0.53158439  0.44888027  0.54539565    -0.10890
C1608       C  0.55834546  0.46893828  0.54093620    -0.12450
loop_ 
_geom_bond_atom_site_label_1 
_geom_bond_atom_site_label_2 
_geom_bond_distance 
_geom_bond_site_symmetry_2 
_ccdc_geom_bond_type 
C1           N19   1.346       .  A
C1           C38   1.449       .  S
C1         C1605   1.415       .  S
N2           N19   1.318       .  A
N2           N24   1.314       .  A
N2          Co39   2.112       .  S
C3           N28   1.361       .  A
C3           C41   1.482       .  S
C3           H48   1.080       .  S
H4           C45   1.080       .  S
C5           N29   1.343       .  A
C5            C9   1.457       .  S
C5           H34   1.082       .  S
Co6          N24   2.031       .  S
Co6          N14   2.020       .  S
Co6          N46   2.085       .  S
Co6          N22   2.028       .  S
Co6         Cl50   2.529       .  S
N7           C45   1.367       .  A
N7           N14   1.318       .  A
N7           Co8   2.189       .  S
Co8          N11   2.161       .  S
Co8          N28   2.197       .  S
Co8          N15   2.173       .  S
Co8         Cl50   2.338       .  S
C9           N47   1.366       .  A
C9         C1599   1.473       .  S
N10          N17   1.314       .  A
N10          N40   1.312       .  A
N10         Co43   2.021       .  S
N11          N29   1.321       .  A
N11          N47   1.338       .  A
N12          C41   1.330       .  A
N12          N22   1.316       .  A
H13          C38   1.079       .  S
N14          N35   1.315       .  A
N15          N33   1.312       .  A
N15          N20   1.343       .  A
C16          N20   1.376       .  A
C16          C44   1.427       .  S
C16        C1596   1.461       .  S
N17          C32   1.335       .  A
N17         Co39   2.055       .  S
C18          N46   1.351       .  A
C18          C21   1.474       .  S
C18          H52   1.082       .  S
C21          N42   1.334       .  A
C21        C1603   1.455       .  S
N22          N28   1.328       .  A
N23          C49   1.338       .  A
N23          N25   1.315       .  A
N23         Co39   2.046       .  S
N24          C38   1.332       .  A
N25          N53   1.319       .  A
N25         Co43   2.070       .  S
H26          C49   1.074       .  S
H27          C44   1.083       .  S
N29         Co43   2.079       .  S
N30          N42   1.315       .  A
N30          N46   1.308       .  A
N30         Co39   2.083       .  S
C31          N35   1.329       .  A
C31          C45   1.491       .  S
C31        C1593   1.470       .  S
C32          C51   1.433       .  S
C32          H36   1.075       .  S
N33          C44   1.328       .  A
N33         Co43   2.017       .  S
C37          N53   1.343       .  A
C37          C49   1.441       .  S
C37        C1601   1.409       .  S
Co39        Cl50   2.355       .  S
N40          C51   1.338       .  A
C41        C1597   1.456       .  S
Co43        Cl50   2.466       .  S
C51        C1607   1.391       .  S
C54          N72   1.343       .  A
C54          C91   1.434       .  S
C54        C1602   1.412       .  S
N55          N72   1.321       .  A
N55          N77   1.313       .  A
N55         Co92   2.064       .  S
C56          N81   1.355       .  A
C56          C94   1.470       .  S
C56         H101   1.082       .  S
H57          C98   1.082       .  S
C58          N82   1.366       .  A
C58          C62   1.492       .  S
C58          H87   1.081       .  S
Co59         N77   2.041       .  S
Co59         N67   2.092       .  S
Co59         N99   2.095       .  S
Co59         N75   2.046       .  S
Co59       Cl103   2.363       .  S
N60          C98   1.342       .  A
N60          N67   1.315       .  A
N60         Co61   2.057       .  S
Co61         N64   2.038       .  S
Co61         N81   2.073       .  S
Co61         N68   1.981       .  S
Co61       Cl103   2.524       .  S
C62         N100   1.331       .  A
C62        C1582   1.473       .  S
N63          N70   1.314       .  A
N63          N93   1.345       .  A
N63         Co96   2.192       .  S
N64          N82   1.323       .  A
N64         N100   1.318       .  A
N65          C94   1.327       .  A
N65          N75   1.305       .  A
H66          C91   1.068       .  S
N67          N88   1.314       .  A
N68          N86   1.322       .  A
N68          N73   1.312       .  A
C69          N73   1.323       .  A
C69          C97   1.500       .  S
C69        C1586   1.461       .  S
N70          C85   1.324       .  A
N70         Co92   2.002       .  S
C71          N99   1.344       .  A
C71          C74   1.443       .  S
C71         H105   1.074       .  S
C74          N95   1.334       .  A
C74        C1592   1.417       .  S
N75          N81   1.315       .  A
N76         C102   1.345       .  A
N76          N78   1.322       .  A
N76         Co92   2.093       .  S
N77          C91   1.334       .  A
N78         N106   1.339       .  A
N78         Co96   2.163       .  S
H79         C102   1.082       .  S
H80          C97   1.081       .  S
N82         Co96   2.195       .  S
N83          N95   1.313       .  A
N83          N99   1.318       .  A
N83         Co92   2.019       .  S
C84          N88   1.344       .  A
C84          C98   1.459       .  S
C84        C1588   1.442       .  S
C85         C104   1.420       .  S
C85          H89   1.083       .  S
N86          C97   1.370       .  A
N86         Co96   2.220       .  S
C90         N106   1.367       .  A
C90         C102   1.459       .  S
C90        C1579   1.480       .  S
Co92       Cl103   2.481       .  S
N93         C104   1.380       .  A
C94        C1589   1.422       .  S
Co96       Cl103   2.349       .  S
C104       C1584   1.462       .  S
C107        N125   1.360       .  A
C107        C144   1.419       .  S
C107       C1573   1.384       .  S
N108        N125   1.314       .  A
N108        N130   1.309       .  A
N108       Co145   2.047       .  S
C109        N134   1.377       .  A
C109        C147   1.501       .  S
C109        H154   1.080       .  S
H110        C151   1.080       .  S
C111        N135   1.328       .  A
C111        C115   1.428       .  S
C111        H140   1.082       .  S
Co112       N130   1.981       .  S
Co112       N120   2.062       .  S
Co112       N152   2.100       .  S
Co112       N128   2.018       .  S
Co112      Cl156   2.523       .  S
N113        C151   1.378       .  A
N113        N120   1.324       .  A
N113       Co114   2.224       .  S
Co114       N117   2.161       .  S
Co114       N134   2.219       .  S
Co114       N121   2.129       .  S
Co114      Cl156   2.311       .  S
C115        N153   1.370       .  A
C115       C1571   1.451       .  S
N116        N123   1.319       .  A
N116        N146   1.315       .  A
N116       Co149   2.032       .  S
N117        N135   1.317       .  A
N117        N153   1.340       .  A
N118        C147   1.339       .  A
N118        N128   1.326       .  A
H119        C144   1.082       .  S
N120        N141   1.337       .  A
N121        N139   1.321       .  A
N121        N126   1.335       .  A
C122        N126   1.362       .  A
C122        C150   1.458       .  S
C122       C1565   1.468       .  S
N123        C138   1.350       .  A
N123       Co145   2.102       .  S
C124        N152   1.342       .  A
C124        C127   1.483       .  S
C124        H158   1.077       .  S
C127        N148   1.328       .  A
C127       C1576   1.464       .  S
N128        N134   1.312       .  A
N129        C155   1.356       .  A
N129        N131   1.316       .  A
N129       Co145   2.125       .  S
N130        C144   1.320       .  A
N131        N159   1.317       .  A
N131       Co149   2.032       .  S
H132        C155   1.068       .  S
H133        C150   1.081       .  S
N135       Co149   2.024       .  S
N136        N148   1.297       .  A
N136        N152   1.309       .  A
N136       Co145   2.004       .  S
C137        N141   1.348       .  A
C137        C151   1.495       .  S
C137       C1570   1.526       .  S
C138        C157   1.457       .  S
C138        H142   1.079       .  S
N139        C150   1.341       .  A
N139       Co149   2.111       .  S
C143        N159   1.336       .  A
C143        C155   1.429       .  S
C143       C1577   1.449       .  S
Co145      Cl156   2.322       .  S
N146        C157   1.332       .  A
C147       C1568   1.509       .  S
Co149      Cl156   2.525       .  S
C157       C1590   1.435       .  S
C160        N178   1.334       .  A
C160        C197   1.453       .  S
C160       C1591   1.405       .  S
N161        N178   1.308       .  A
N161        N183   1.318       .  A
N161       Co198   2.040       .  S
C162        N187   1.365       .  A
C162        C200   1.494       .  S
C162        H207   1.079       .  S
H163        C204   1.082       .  S
C164        N188   1.325       .  A
C164        C168   1.432       .  S
C164        H193   1.082       .  S
Co165       N183   2.053       .  S
Co165       N173   2.017       .  S
Co165       N205   2.082       .  S
Co165       N181   2.026       .  S
Co165      Cl209   2.517       .  S
N166        C204   1.360       .  A
N166        N173   1.327       .  A
N166       Co167   2.195       .  S
Co167       N170   2.225       .  S
Co167       N187   2.188       .  S
Co167       N174   2.217       .  S
Co167      Cl209   2.343       .  S
C168        N206   1.376       .  A
C168       C1559   1.458       .  S
N169        N176   1.312       .  A
N169        N199   1.317       .  A
N169       Co202   2.063       .  S
N170        N188   1.321       .  A
N170        N206   1.342       .  A
N171        C200   1.327       .  A
N171        N181   1.313       .  A
H172        C197   1.082       .  S
N173        N194   1.316       .  A
N174        N192   1.303       .  A
N174        N179   1.348       .  A
C175        N179   1.390       .  A
C175        C203   1.436       .  S
C175       C1557   1.498       .  S
N176        C191   1.327       .  A
N176       Co198   1.989       .  S
C177        N205   1.353       .  A
C177        C180   1.500       .  S
C177        H211   1.078       .  S
C180        N201   1.307       .  A
C180       C1578   1.436       .  S
N181        N187   1.320       .  A
N182        C208   1.347       .  A
N182        N184   1.299       .  A
N182       Co198   2.054       .  S
N183        C197   1.344       .  A
N184        N212   1.309       .  A
N184       Co202   2.041       .  S
H185        C208   1.080       .  S
H186        C203   1.083       .  S
N188       Co202   1.990       .  S
N189        N201   1.287       .  A
N189        N205   1.299       .  A
N189       Co198   1.982       .  S
C190        N194   1.333       .  A
C190        C204   1.485       .  S
C190       C1561   1.450       .  S
C191        C210   1.433       .  S
C191        H195   1.082       .  S
N192        C203   1.332       .  A
N192       Co202   2.013       .  S
C196        N212   1.340       .  A
C196        C208   1.454       .  S
C196       C1563   1.413       .  S
Co198      Cl209   2.374       .  S
N199        C210   1.342       .  A
C200       C1555   1.461       .  S
Co202      Cl209   2.431       .  S
C210       C1608   1.397       .  S
C213        N231   1.341       .  A
C213        C250   1.454       .  S
C213       C1606   1.414       .  S
N214        N231   1.314       .  A
N214        N236   1.314       .  A
N214       Co251   2.047       .  S
C215        N240   1.374       .  A
C215        C253   1.498       .  S
C215        H260   1.076       .  S
H216        C257   1.078       .  S
C217        N241   1.339       .  A
C217        C221   1.436       .  S
C217        H246   1.080       .  S
Co218       N236   2.079       .  S
Co218       N226   2.000       .  S
Co218       N258   2.045       .  S
Co218       N234   2.030       .  S
Co218      Cl262   2.538       .  S
N219        C257   1.373       .  A
N219        N226   1.320       .  A
N219       Co220   2.232       .  S
Co220       N223   2.233       .  S
Co220       N240   2.224       .  S
Co220       N227   2.229       .  S
Co220      Cl262   2.326       .  S
C221        N259   1.386       .  A
C221       C1550   1.503       .  S
N222        N229   1.315       .  A
N222        N252   1.296       .  A
N222       Co255   1.990       .  S
N223        N241   1.314       .  A
N223        N259   1.352       .  A
N224        C253   1.331       .  A
N224        N234   1.319       .  A
H225        C250   1.080       .  S
N226        N247   1.315       .  A
N227        N245   1.314       .  A
N227        N232   1.351       .  A
C228        N232   1.384       .  A
C228        C256   1.445       .  S
C228       C1545   1.512       .  S
N229        C244   1.366       .  A
N229       Co251   2.140       .  S
C230        N258   1.333       .  A
C230        C233   1.432       .  S
C230        H264   1.077       .  S
C233        N254   1.341       .  A
C233       C1564   1.431       .  S
N234        N240   1.317       .  A
N235        C261   1.356       .  A
N235        N237   1.309       .  A
N235       Co251   2.139       .  S
N236        C250   1.337       .  A
N237        N265   1.298       .  A
N237       Co255   1.982       .  S
H238        C261   1.046       .  S
H239        C256   1.072       .  S
N241       Co255   2.044       .  S
N242        N254   1.308       .  A
N242        N258   1.314       .  A
N242       Co251   2.060       .  S
C243        N247   1.325       .  A
C243        C257   1.501       .  S
C243       C1551   1.479       .  S
C244        C263   1.470       .  S
C244        H248   1.072       .  S
N245        C256   1.337       .  A
N245       Co255   2.058       .  S
C249        N265   1.322       .  A
C249        C261   1.463       .  S
C249       C1575   1.452       .  S
Co251      Cl262   2.368       .  S
N252        C263   1.318       .  A
C253       C1547   1.491       .  S
Co255      Cl262   2.531       .  S
C263       C1553   1.444       .  S
C266        N284   1.332       .  A
C266        C303   1.465       .  S
C266       C1604   1.458       .  S
N267        N284   1.318       .  A
N267        N289   1.313       .  A
N267       Co304   1.997       .  S
C268        N293   1.311       .  A
C268        C306   1.402       .  S
C268        H313   1.083       .  S
H269        C310   1.071       .  S
C270        N294   1.372       .  A
C270        C274   1.503       .  S
C270        H299   1.081       .  S
Co271       N289   2.155       .  S
Co271       N279   2.066       .  S
Co271       N311   2.088       .  S
Co271       N287   2.087       .  S
Co271      Cl315   2.398       .  S
N272        C310   1.348       .  A
N272        N279   1.318       .  A
N272       Co273   2.102       .  S
Co273       N276   1.995       .  S
Co273       N293   1.986       .  S
Co273       N280   2.080       .  S
Co273      Cl315   2.511       .  S
C274        N312   1.331       .  A
C274       C1538   1.487       .  S
N275        N282   1.318       .  A
N275        N305   1.337       .  A
N275       Co308   2.133       .  S
N276        N294   1.311       .  A
N276        N312   1.317       .  A
N277        C306   1.359       .  A
N277        N287   1.325       .  A
H278        C303   1.054       .  S
N279        N300   1.306       .  A
N280        N298   1.318       .  A
N280        N285   1.331       .  A
C281        N285   1.345       .  A
C281        C309   1.501       .  S
C281       C1542   1.526       .  S
N282        C297   1.323       .  A
N282       Co304   2.047       .  S
C283        N311   1.352       .  A
C283        C286   1.457       .  S
C283        H317   1.076       .  S
C286        N307   1.336       .  A
C286       C1587   1.445       .  S
N287        N293   1.311       .  A
N288        C314   1.314       .  A
N288        N290   1.314       .  A
N288       Co304   2.010       .  S
N289        C303   1.347       .  A
N290        N318   1.340       .  A
N290       Co308   2.135       .  S
H291        C314   1.066       .  S
H292        C309   1.081       .  S
N294       Co308   2.211       .  S
N295        N307   1.312       .  A
N295        N311   1.316       .  A
N295       Co304   2.053       .  S
C296        N300   1.337       .  A
C296        C310   1.461       .  S
C296       C1554   1.455       .  S
C297        C316   1.432       .  S
C297        H301   1.070       .  S
N298        C309   1.378       .  A
N298       Co308   2.214       .  S
C302        N318   1.367       .  A
C302        C314   1.413       .  S
C302       C1539   1.440       .  S
Co304      Cl315   2.457       .  S
N305        C316   1.365       .  A
C306       C1574   1.383       .  S
Co308      Cl315   2.353       .  S
C316       C1543   1.447       .  S
C319        N337   1.331       .  A
C319        C356   1.442       .  S
C319       C1529   1.439       .  S
N320        N337   1.315       .  A
N320        N342   1.335       .  A
N320       Co357   2.060       .  S
C321        N346   1.374   1_554  A
C321        C359   1.498   1_554  S
C321        H366   1.081       .  S
H322        C363   1.080       .  S
C323        N347   1.334       .  A
C323        C327   1.443   1_554  S
C323        H352   1.081       .  S
Co324       N342   2.147       .  S
Co324       N332   1.979       .  S
Co324       N364   1.950       .  S
Co324       N340   2.122       .  S
Co324      Cl368   2.389       .  S
N325        C363   1.373       .  A
N325        N332   1.304       .  A
N325       Co326   2.192       .  S
Co326       N329   2.159   1_556  S
Co326       N346   2.229       .  S
Co326       N333   2.173   1_556  S
Co326      Cl368   2.430       .  S
C327        N365   1.365       .  A
C327       C1523   1.454       .  S
N328        N335   1.308       .  A
N328        N358   1.307   1_556  A
N328       Co361   2.017   1_556  S
N329        N347   1.323       .  A
N329        N365   1.336   1_554  A
N330        C359   1.358       .  A
N330        N340   1.340       .  A
H331        C356   1.059       .  S
N332        N353   1.316       .  A
N333        N351   1.306       .  A
N333        N338   1.347       .  A
C334        N338   1.380       .  A
C334        C362   1.416       .  S
C334       C1525   1.460       .  S
N335        C350   1.341       .  A
N335       Co357   2.048       .  S
C336        N364   1.320       .  A
C336        C339   1.424       .  S
C336        H370   1.084       .  S
C339        N360   1.361       .  A
C339       C1534   1.396       .  S
N340        N346   1.334       .  A
N341        C367   1.330       .  A
N341        N343   1.319       .  A
N341       Co357   2.038   1_554  S
N342        C356   1.353       .  A
N343        N371   1.314       .  A
N343       Co361   2.081       .  S
H344        C367   1.077       .  S
H345        C362   1.083       .  S
N347       Co361   2.059       .  S
N348        N360   1.318       .  A
N348        N364   1.296       .  A
N348       Co357   2.036       .  S
C349        N353   1.328       .  A
C349        C363   1.509       .  S
C349       C1528   1.484       .  S
C350        C369   1.454   1_556  S
C350        H354   1.082       .  S
N351        C362   1.322       .  A
N351       Co361   1.981       .  S
C355        N371   1.340       .  A
C355        C367   1.465       .  S
C355       C1531   1.393       .  S
Co357      Cl368   2.490       .  S
N358        C369   1.332       .  A
C359       C1522   1.530   1_556  S
Co361      Cl368   2.353   1_554  S
C369       C1535   1.412       .  S
C372        N390   1.338       .  A
C372        C409   1.477       .  S
C372       C1530   1.429       .  S
N373        N390   1.307       .  A
N373        N395   1.313       .  A
N373       Co410   2.046       .  S
C374        N399   1.333       .  A
C374        C412   1.448       .  S
C374        H419   1.070       .  S
H375        C416   1.082       .  S
C376        N400   1.363   1_655  A
C376        C380   1.489   1_655  S
C376        H405   1.081       .  S
Co377       N395   2.094   1_455  S
Co377       N385   2.057       .  S
Co377       N417   2.058       .  S
Co377       N393   2.071       .  S
Co377      Cl421   2.409       .  S
N378        C416   1.344       .  A
N378        N385   1.311       .  A
N378       Co379   2.043       .  S
Co379       N382   2.017       .  S
Co379       N399   2.069       .  S
Co379       N386   2.023       .  S
Co379      Cl421   2.500       .  S
C380        N418   1.331       .  A
C380       C1511   1.458       .  S
N381        N388   1.307       .  A
N381        N411   1.351       .  A
N381       Co414   2.226   1_655  S
N382        N400   1.329       .  A
N382        N418   1.316       .  A
N383        C412   1.342       .  A
N383        N393   1.319       .  A
H384        C409   1.081       .  S
N385        N406   1.312       .  A
N386        N404   1.313       .  A
N386        N391   1.318       .  A
C387        N391   1.331       .  A
C387        C415   1.514       .  S
C387       C1508   1.499       .  S
N388        C403   1.317       .  A
N388       Co410   1.940       .  S
C389        N417   1.346       .  A
C389        C392   1.458       .  S
C389        H423   1.071       .  S
C392        N413   1.323   1_455  A
C392       C1517   1.420       .  S
N393        N399   1.318       .  A
N394        C420   1.337       .  A
N394        N396   1.322       .  A
N394       Co410   2.072       .  S
N395        C409   1.353       .  A
N396        N424   1.344   1_655  A
N396       Co414   2.196   1_655  S
H397        C420   1.080       .  S
H398        C415   1.081       .  S
N400       Co414   2.212       .  S
N401        N413   1.303       .  A
N401        N417   1.301   1_655  A
N401       Co410   1.985       .  S
C402        N406   1.343       .  A
C402        C416   1.454       .  S
C402       C1519   1.423       .  S
C403        C422   1.404       .  S
C403        H407   1.083       .  S
N404        C415   1.377       .  A
N404       Co414   2.223       .  S
C408        N424   1.376   1_655  A
C408        C420   1.436       .  S
C408       C1509   1.479   1_655  S
Co410      Cl421   2.445   1_655  S
N411        C422   1.388       .  A
C412       C1516   1.412       .  S
Co414      Cl421   2.373       .  S
C422       C1514   1.467       .  S
C425        N443   1.332       .  A
C425        C462   1.500       .  S
C425       C1493   1.485       .  S
N426        N443   1.318       .  A
N426        N448   1.315       .  A
N426       Co463   2.031       .  S
C427        N452   1.327       .  A
C427        C465   1.429       .  S
C427        H472   1.083       .  S
H428        C469   1.081       .  S
C429        N453   1.325       .  A
C429        C433   1.429       .  S
C429        H458   1.083       .  S
Co430       N448   2.209       .  S
Co430       N438   2.264       .  S
Co430       N470   2.259       .  S
Co430       N446   2.226   1_556  S
Co430      Cl474   2.309       .  S
N431        C469   1.330       .  A
N431        N438   1.320   1_554  A
N431       Co432   1.989       .  S
Co432       N435   2.029       .  S
Co432       N452   1.992       .  S
Co432       N439   2.051       .  S
Co432      Cl474   2.463   1_554  S
C433        N471   1.337       .  A
C433       C1504   1.390       .  S
N434        N441   1.326       .  A
N434        N464   1.323       .  A
N434       Co467   2.082       .  S
N435        N453   1.305   1_554  A
N435        N471   1.315   1_554  A
N436        C465   1.390       .  A
N436        N446   1.349       .  A
H437        C462   1.080       .  S
N438        N459   1.348       .  A
N439        N457   1.314       .  A
N439        N444   1.302       .  A
C440        N444   1.329       .  A
C440        C468   1.483       .  S
C440       C1502   1.427       .  S
N441        C456   1.335       .  A
N441       Co463   2.079       .  S
C442        N470   1.378       .  A
C442        C445   1.514       .  S
C442        H476   1.080   1_556  S
C445        N466   1.328       .  A
C445       C1498   1.499       .  S
N446        N452   1.302       .  A
N447        C473   1.342       .  A
N447        N449   1.306       .  A
N447       Co463   2.038       .  S
N448        C462   1.370       .  A
N449        N477   1.300       .  A
N449       Co467   2.014       .  S
H450        C473   1.078       .  S
H451        C468   1.075       .  S
N453       Co467   1.997       .  S
N454        N466   1.317       .  A
N454        N470   1.322       .  A
N454       Co463   2.025       .  S
C455        N459   1.384       .  A
C455        C469   1.426   1_556  S
C455       C1499   1.479       .  S
C456        C475   1.433       .  S
C456        H460   1.072       .  S
N457        C468   1.353       .  A
N457       Co467   2.089   1_554  S
C461        N477   1.330       .  A
C461        C473   1.448       .  S
C461       C1506   1.414   1_556  S
Co463      Cl474   2.548       .  S
N464        C475   1.332       .  A
C465       C1495   1.491       .  S
Co467      Cl474   2.397       .  S
C475       C1515   1.420       .  S
C478        N496   1.331       .  A
C478        C515   1.437       .  S
C478       C1532   1.404       .  S
N479        N496   1.313       .  A
N479        N501   1.314       .  A
N479       Co516   2.028       .  S
C480        N505   1.342       .  A
C480        C518   1.456       .  S
C480        H525   1.076       .  S
H481        C522   1.074       .  S
C482        N506   1.369   1_655  A
C482        C486   1.497   1_655  S
C482        H511   1.081       .  S
Co483       N501   2.051   1_455  S
Co483       N491   2.076       .  S
Co483       N523   2.110       .  S
Co483       N499   2.031       .  S
Co483      Cl527   2.447       .  S
N484        C522   1.340       .  A
N484        N491   1.320       .  A
N484       Co485   2.089       .  S
Co485       N488   2.049       .  S
Co485       N505   2.090       .  S
Co485       N492   2.042       .  S
Co485      Cl527   2.513       .  S
C486        N524   1.335       .  A
C486       C1487   1.489   1_455  S
N487        N494   1.320       .  A
N487        N517   1.349       .  A
N487       Co520   2.219   1_655  S
N488        N506   1.318       .  A
N488        N524   1.318       .  A
N489        C518   1.332       .  A
N489        N499   1.308       .  A
H490        C515   1.080       .  S
N491        N512   1.314       .  A
N492        N510   1.321       .  A
N492        N497   1.320       .  A
C493        N497   1.335       .  A
C493        C521   1.510       .  S
C493       C1483   1.508       .  S
N494        C509   1.340       .  A
N494       Co516   2.061       .  S
C495        N523   1.350       .  A
C495        C498   1.463       .  S
C495        H529   1.062       .  S
C498        N519   1.332       .  A
C498       C1491   1.452       .  S
N499        N505   1.312       .  A
N500        C526   1.329       .  A
N500        N502   1.312   1_655  A
N500       Co516   2.031       .  S
N501        C515   1.337       .  A
N502        N530   1.339       .  A
N502       Co520   2.140       .  S
H503        C526   1.076       .  S
H504        C521   1.081       .  S
N506       Co520   2.196       .  S
N507        N519   1.315       .  A
N507        N523   1.316       .  A
N507       Co516   2.055   1_455  S
C508        N512   1.337       .  A
C508        C522   1.440       .  S
C508       C1490   1.441   1_455  S
C509        C528   1.443       .  S
C509        H513   1.082       .  S
N510        C521   1.378       .  A
N510       Co520   2.245       .  S
C514        N530   1.368   1_655  A
C514        C526   1.428       .  S
C514       C1485   1.450   1_655  S
Co516      Cl527   2.455   1_655  S
N517        C528   1.382       .  A
C518       C1501   1.446       .  S
Co520      Cl527   2.380       .  S
C528       C1481   1.495       .  S
C531        N549   1.341   1_554  A
C531        C568   1.521       .  S
C531       C1474   1.534       .  S
N532        N549   1.329       .  A
N532        N554   1.315   1_556  A
N532       Co569   2.041       .  S
C533        N558   1.329       .  A
C533        C571   1.426   1_554  S
C533        H578   1.082       .  S
H534        C575   1.083       .  S
C535        N559   1.344       .  A
C535        C539   1.471       .  S
C535        H564   1.076       .  S
Co536       N554   2.269       .  S
Co536       N544   2.205   1_655  S
Co536       N576   2.216   1_554  S
Co536       N552   2.239   1_655  S
Co536      Cl580   2.280       .  S
N537        C575   1.325       .  A
N537        N544   1.304       .  A
N537       Co538   2.000       .  S
Co538       N541   2.021   1_455  S
Co538       N558   1.989       .  S
Co538       N545   1.995       .  S
Co538      Cl580   2.450   1_455  S
C539        N577   1.328       .  A
C539       C1489   1.422       .  S
N540        N547   1.312   1_554  A
N540        N570   1.319       .  A
N540       Co573   2.054       .  S
N541        N559   1.310       .  A
N541        N577   1.304       .  A
N542        C571   1.382       .  A
N542        N552   1.348   1_556  A
H543        C568   1.080       .  S
N544        N565   1.345   1_455  A
N545        N563   1.314   1_454  A
N545        N550   1.309   1_554  A
C546        N550   1.324       .  A
C546        C574   1.449       .  S
C546       C1503   1.384       .  S
N547        C562   1.311       .  A
N547       Co569   2.012       .  S
C548        N576   1.371   1_455  A
C548        C551   1.489       .  S
C548        H582   1.074       .  S
C551        N572   1.331   1_455  A
C551       C1476   1.480       .  S
N552        N558   1.314       .  A
N553        C579   1.342       .  A
N553        N555   1.317       .  A
N553       Co569   2.084       .  S
N554        C568   1.385       .  A
N555        N583   1.311       .  A
N555       Co573   2.067   1_556  S
H556        C579   1.075       .  S
H557        C574   1.076   1_655  S
N559       Co573   2.070       .  S
N560        N572   1.318       .  A
N560        N576   1.314       .  A
N560       Co569   1.996       .  S
C561        N565   1.386   1_455  A
C561        C575   1.429       .  S
C561       C1479   1.477   1_455  S
C562        C581   1.425       .  S
C562        H566   1.085       .  S
N563        C574   1.338   1_655  A
N563       Co573   2.075   1_556  S
C567        N583   1.339       .  A
C567        C579   1.447       .  S
C567       C1518   1.427       .  S
Co569      Cl580   2.501   1_556  S
N570        C581   1.352   1_554  A
C571       C1478   1.473       .  S
Co573      Cl580   2.424       .  S
C581       C1533   1.391       .  S
C584        N602   1.351       .  A
C584        C621   1.436       .  S
C584       C1536   1.418       .  S
N585        N602   1.317       .  A
N585        N607   1.303       .  A
N585       Co622   2.025   1_554  S
C586        N611   1.334       .  A
C586        C624   1.449       .  S
C586        H631   1.082       .  S
H587        C628   1.082       .  S
C588        N612   1.369   1_655  A
C588        C592   1.493       .  S
C588        H617   1.081       .  S
Co589       N607   2.036   1_455  S
Co589       N597   2.087       .  S
Co589       N629   2.104       .  S
Co589       N605   2.104       .  S
Co589      Cl633   2.309       .  S
N590        C628   1.350       .  A
N590        N597   1.316       .  A
N590       Co591   2.106       .  S
Co591       N594   2.014       .  S
Co591       N611   2.008       .  S
Co591       N598   2.026       .  S
Co591      Cl633   2.557       .  S
C592        N630   1.331   1_655  A
C592       C1471   1.478       .  S
N593        N600   1.316       .  A
N593        N623   1.343       .  A
N593       Co626   2.188   1_655  S
N594        N612   1.321       .  A
N594        N630   1.319       .  A
N595        C624   1.351       .  A
N595        N605   1.319       .  A
H596        C621   1.056       .  S
N597        N618   1.313       .  A
N598        N616   1.322   1_554  A
N598        N603   1.324       .  A
C599        N603   1.334   1_556  A
C599        C627   1.505       .  S
C599       C1467   1.503       .  S
N600        C615   1.325       .  A
N600       Co622   2.005   1_554  S
C601        N629   1.335   1_556  A
C601        C604   1.445       .  S
C601        H635   1.059   1_556  S
C604        N625   1.331       .  A
C604       C1520   1.428       .  S
N605        N611   1.306       .  A
N606        C632   1.349       .  A
N606        N608   1.320       .  A
N606       Co622   2.112   1_455  S
N607        C621   1.323       .  A
N608        N636   1.341       .  A
N608       Co626   2.157   1_556  S
H609        C632   1.082   1_655  S
H610        C627   1.081       .  S
N612       Co626   2.213       .  S
N613        N625   1.314       .  A
N613        N629   1.322   1_556  A
N613       Co622   2.020   1_455  S
C614        N618   1.336       .  A
C614        C628   1.474       .  S
C614       C1492   1.449       .  S
C615        C634   1.427       .  S
C615        H619   1.082   1_554  S
N616        C627   1.377       .  A
N616       Co626   2.234   1_556  S
C620        N636   1.369       .  A
C620        C632   1.463       .  S
C620       C1469   1.492       .  S
Co622      Cl633   2.497   1_656  S
N623        C634   1.377       .  A
C624       C1505   1.413       .  S
Co626      Cl633   2.313       .  S
C634       C1465   1.458   1_554  S
C637        N655   1.334   1_556  A
C637        C674   1.486       .  S
C637       C1451   1.476       .  S
N638        N655   1.321       .  A
N638        N660   1.323   1_554  A
N638       Co675   2.036       .  S
C639        N664   1.341       .  A
C639        C677   1.454       .  S
C639        H684   1.082       .  S
H640        C681   1.083       .  S
C641        N665   1.344       .  A
C641        C645   1.453       .  S
C641        H670   1.078       .  S
Co642       N660   2.194       .  S
Co642       N650   2.177       .  S
Co642       N682   2.191   1_556  S
Co642       N658   2.169       .  S
Co642      Cl686   2.339   1_556  S
N643        C681   1.332       .  A
N643        N650   1.311       .  A
N643       Co644   2.031       .  S
Co644       N647   2.056       .  S
Co644       N664   2.072       .  S
Co644       N651   2.048   1_556  S
Co644      Cl686   2.450   1_556  S
C645        N683   1.342       .  A
C645       C1457   1.412       .  S
N646        N653   1.313       .  A
N646        N676   1.314       .  A
N646       Co679   2.092       .  S
N647        N665   1.310       .  A
N647        N683   1.309       .  A
N648        C677   1.367       .  A
N648        N658   1.338       .  A
H649        C674   1.079       .  S
N650        N671   1.343       .  A
N651        N669   1.317       .  A
N651        N656   1.317       .  A
C652        N656   1.341       .  A
C652        C680   1.440       .  S
C652       C1461   1.409       .  S
N653        C668   1.339       .  A
N653       Co675   2.051       .  S
C654        N682   1.365       .  A
C654        C657   1.489       .  S
C654        H688   1.080       .  S
C657        N678   1.327       .  A
C657       C1453   1.455       .  S
N658        N664   1.321       .  A
N659        C685   1.353       .  A
N659        N661   1.317       .  A
N659       Co675   2.071       .  S
N660        C674   1.366       .  A
N661        N689   1.309       .  A
N661       Co679   2.075       .  S
H662        C685   1.082       .  S
H663        C680   1.077       .  S
N665       Co679   2.036   1_556  S
N666        N678   1.314       .  A
N666        N682   1.319       .  A
N666       Co675   1.994       .  S
C667        N671   1.377       .  A
C667        C681   1.434       .  S
C667       C1456   1.471       .  S
C668        C687   1.458       .  S
C668        H672   1.082       .  S
N669        C680   1.338       .  A
N669       Co679   2.063       .  S
C673        N689   1.332       .  A
C673        C685   1.465       .  S
C673       C1459   1.425       .  S
Co675      Cl686   2.530       .  S
N676        C687   1.344       .  A
C677       C1450   1.471       .  S
Co679      Cl686   2.372       .  S
C687       C1464   1.433       .  S
C690        N708   1.326       .  A
C690        C727   1.505       .  S
C690       C1442   1.473       .  S
N691        N708   1.313       .  A
N691        N713   1.317       .  A
N691       Co728   2.002       .  S
C692        N717   1.318       .  A
C692        C730   1.413       .  S
C692        H737   1.083       .  S
H693        C734   1.082       .  S
C694        N718   1.334       .  A
C694        C698   1.440       .  S
C694        H723   1.082       .  S
Co695       N713   2.212   1_545  S
Co695       N703   2.225       .  S
Co695       N735   2.205       .  S
Co695       N711   2.215       .  S
Co695      Cl739   2.368       .  S
N696        C734   1.317       .  A
N696        N703   1.322       .  A
N696       Co697   1.968       .  S
Co697       N700   2.010       .  S
Co697       N717   1.944       .  S
Co697       N704   2.041       .  S
Co697      Cl739   2.418       .  S
C698        N736   1.331       .  A
C698       C1448   1.406       .  S
N699        N706   1.330       .  A
N699        N729   1.319       .  A
N699       Co732   2.030   1_565  S
N700        N718   1.307       .  A
N700        N736   1.315       .  A
N701        C730   1.392       .  A
N701        N711   1.350       .  A
H702        C727   1.081       .  S
N703        N724   1.342       .  A
N704        N722   1.311       .  A
N704        N709   1.314       .  A
C705        N709   1.340       .  A
C705        C733   1.466       .  S
C705       C1443   1.410       .  S
N706        C721   1.345       .  A
N706       Co728   2.132       .  S
C707        N735   1.366       .  A
C707        C710   1.496       .  S
C707        H741   1.080       .  S
C710        N731   1.328   1_545  A
C710       C1438   1.466       .  S
N711        N717   1.297       .  A
N712        C738   1.358       .  A
N712        N714   1.302   1_565  A
N712       Co728   2.077       .  S
N713        C727   1.370       .  A
N714        N742   1.293       .  A
N714       Co732   1.984       .  S
H715        C738   1.074       .  S
H716        C733   1.060       .  S
N718       Co732   2.006       .  S
N719        N731   1.312       .  A
N719        N735   1.324   1_565  A
N719       Co728   2.032       .  S
C720        N724   1.377       .  A
C720        C734   1.417       .  S
C720       C1436   1.445       .  S
C721        C740   1.437       .  S
C721        H725   1.068       .  S
N722        C733   1.337       .  A
N722       Co732   2.085       .  S
C726        N742   1.323       .  A
C726        C738   1.465   1_545  S
C726       C1446   1.444       .  S
Co728      Cl739   2.458   1_565  S
N729        C740   1.332       .  A
C730       C1439   1.477       .  S
Co732      Cl739   2.436       .  S
C740       C1458   1.427       .  S
C743        N761   1.328       .  A
C743        C780   1.447       .  S
C743       C1444   1.427       .  S
N744        N761   1.314       .  A
N744        N766   1.313       .  A
N744       Co781   2.031       .  S
C745        N770   1.332       .  A
C745        C783   1.424       .  S
C745        H790   1.077       .  S
H746        C787   1.061       .  S
C747        N771   1.378       .  A
C747        C751   1.521       .  S
C747        H776   1.081       .  S
Co748       N766   2.062       .  S
Co748       N756   2.130       .  S
Co748       N788   2.070       .  S
Co748       N764   2.076   1_556  S
Co748      Cl792   2.457       .  S
N749        C787   1.334       .  A
N749        N756   1.312       .  A
N749       Co750   2.045   1_556  S
Co750       N753   1.959   1_554  S
Co750       N770   2.031       .  S
Co750       N757   2.018       .  S
Co750      Cl792   2.455   1_554  S
C751        N789   1.324       .  A
C751       C1424   1.486       .  S
N752        N759   1.316       .  A
N752        N782   1.343       .  A
N752       Co785   2.211       .  S
N753        N771   1.307       .  A
N753        N789   1.315       .  A
N754        C783   1.350       .  A
N754        N764   1.320       .  A
H755        C780   1.079       .  S
N756        N777   1.332       .  A
N757        N775   1.320       .  A
N757        N762   1.312       .  A
C758        N762   1.323       .  A
C758        C786   1.511       .  S
C758       C1427   1.478       .  S
N759        C774   1.329       .  A
N759       Co781   2.016       .  S
C760        N788   1.331   1_554  A
C760        C763   1.446       .  S
C760        H794   1.075       .  S
C763        N784   1.334   1_554  A
C763       C1434   1.418       .  S
N764        N770   1.307       .  A
N765        C791   1.322       .  A
N765        N767   1.310       .  A
N765       Co781   1.968       .  S
N766        C780   1.330       .  A
N767        N795   1.352   1_556  A
N767       Co785   2.262       .  S
H768        C791   1.083       .  S
H769        C786   1.081       .  S
N771       Co785   2.239       .  S
N772        N784   1.322       .  A
N772        N788   1.322       .  A
N772       Co781   2.067       .  S
C773        N777   1.362       .  A
C773        C787   1.417       .  S
C773       C1432   1.432       .  S
C774        C793   1.431       .  S
C774        H778   1.082       .  S
N775        C786   1.373       .  A
N775       Co785   2.237   1_554  S
C779        N795   1.395   1_556  A
C779        C791   1.417       .  S
C779       C1422   1.488   1_556  S
Co781      Cl792   2.475       .  S
N782        C793   1.376       .  A
C783       C1430   1.431       .  S
Co785      Cl792   2.340       .  S
C793       C1425   1.472       .  S
C796        N814   1.334       .  A
C796        C833   1.442       .  S
C796       C1460   1.437       .  S
N797        N814   1.320       .  A
N797        N819   1.315   1_565  A
N797       Co834   2.030   1_565  S
C798        N823   1.346       .  A
C798        C836   1.477       .  S
C798        H843   1.081       .  S
H799        C840   1.081       .  S
C800        N824   1.381   1_565  A
C800        C804   1.511       .  S
C800        H829   1.081       .  S
Co801       N819   2.102       .  S
Co801       N809   2.049       .  S
Co801       N841   2.136       .  S
Co801       N817   2.009       .  S
Co801      Cl845   2.286       .  S
N802        C840   1.330       .  A
N802        N809   1.308       .  A
N802       Co803   2.019       .  S
Co803       N806   2.075       .  S
Co803       N823   2.112       .  S
Co803       N810   2.019       .  S
Co803      Cl845   2.544       .  S
C804        N842   1.347   1_565  A
C804       C1416   1.537       .  S
N805        N812   1.323       .  A
N805        N835   1.339       .  A
N805       Co838   2.159   1_565  S
N806        N824   1.321       .  A
N806        N842   1.334       .  A
N807        C836   1.332       .  A
N807        N817   1.305       .  A
H808        C833   1.071       .  S
N809        N830   1.306       .  A
N810        N828   1.321       .  A
N810        N815   1.325       .  A
C811        N815   1.335       .  A
C811        C839   1.498       .  S
C811       C1409   1.500       .  S
N812        C827   1.335       .  A
N812       Co834   2.071   1_565  S
C813        N841   1.353       .  A
C813        C816   1.453       .  S
C813        H847   1.071       .  S
C816        N837   1.334       .  A
C816       C1417   1.452       .  S
N817        N823   1.312       .  A
N818        C844   1.333       .  A
N818        N820   1.320       .  A
N818       Co834   2.049       .  S
N819        C833   1.346   1_545  A
N820        N848   1.337       .  A
N820       Co838   2.151       .  S
H821        C844   1.082       .  S
H822        C839   1.081       .  S
N824       Co838   2.237       .  S
N825        N837   1.320       .  A
N825        N841   1.316       .  A
N825       Co834   2.019       .  S
C826        N830   1.345       .  A
C826        C840   1.436       .  S
C826       C1420   1.409       .  S
C827        C846   1.435       .  S
C827        H831   1.082       .  S
N828        C839   1.375       .  A
N828       Co838   2.225       .  S
C832        N848   1.365       .  A
C832        C844   1.438       .  S
C832       C1414   1.452       .  S
Co834      Cl845   2.553       .  S
N835        C846   1.368       .  A
C836       C1429   1.410       .  S
Co838      Cl845   2.317       .  S
C846       C1412   1.458       .  S
C849        N867   1.349       .  A
C849        C886   1.444   1_565  S
C849       C1462   1.406       .  S
N850        N867   1.320       .  A
N850        N872   1.308   1_565  A
N850       Co887   2.032   1_554  S
C851        N876   1.339       .  A
C851        C889   1.449   1_554  S
C851        H896   1.078       .  S
H852        C893   1.082       .  S
C853        N877   1.360   1_565  A
C853        C857   1.480   1_565  S
C853        H882   1.080       .  S
Co854       N872   2.059       .  S
Co854       N862   2.027       .  S
Co854       N894   2.096   1_554  S
Co854       N870   2.052       .  S
Co854      Cl898   2.338       .  S
N855        C893   1.358       .  A
N855        N862   1.315       .  A
N855       Co856   2.128       .  S
Co856       N859   2.019       .  S
Co856       N876   2.044       .  S
Co856       N863   2.051       .  S
Co856      Cl898   2.531       .  S
C857        N895   1.332       .  A
C857       C1408   1.452   1_545  S
N858        N865   1.315       .  A
N858        N888   1.342       .  A
N858       Co891   2.188   1_564  S
N859        N877   1.328       .  A
N859        N895   1.317       .  A
N860        C889   1.342       .  A
N860        N870   1.306   1_556  A
H861        C886   1.077       .  S
N862        N883   1.307       .  A
N863        N881   1.320   1_554  A
N863        N868   1.321   1_554  A
C864        N868   1.335       .  A
C864        C892   1.500       .  S
C864       C1403   1.497       .  S
N865        C880   1.323       .  A
N865       Co887   1.995   1_554  S
C866        N894   1.356       .  A
C866        C869   1.447       .  S
C866        H900   1.060       .  S
C869        N890   1.329       .  A
C869       C1445   1.450       .  S
N870        N876   1.309       .  A
N871        C897   1.345   1_545  A
N871        N873   1.320       .  A
N871       Co887   2.126   1_545  S
N872        C886   1.333       .  A
N873        N901   1.344       .  A
N873       Co891   2.161       .  S
H874        C897   1.080       .  S
H875        C892   1.080       .  S
N877       Co891   2.188   1_554  S
N878        N890   1.302       .  A
N878        N894   1.314       .  A
N878       Co887   2.031   1_545  S
C879        N883   1.331       .  A
C879        C893   1.483       .  S
C879       C1418   1.441       .  S
C880        C899   1.426       .  S
C880        H884   1.083       .  S
N881        C892   1.372       .  A
N881       Co891   2.203       .  S
C885        N901   1.373       .  A
C885        C897   1.457   1_545  S
C885       C1406   1.497       .  S
Co887      Cl898   2.486   1_566  S
N888        C899   1.376       .  A
C889       C1431   1.432       .  S
Co891      Cl898   2.366   1_556  S
C899       C1402   1.454       .  S
C902        N920   1.332       .  A
C902        C939   1.490   1_556  S
C902       C1396   1.460       .  S
N903        N920   1.318       .  A
N903        N925   1.327   1_556  A
N903       Co940   2.077   1_565  S
C904        N929   1.331       .  A
C904        C942   1.430       .  S
C904        H949   1.078       .  S
H905        C946   1.083       .  S
C906        N930   1.342       .  A
C906        C910   1.429       .  S
C906        H935   1.062       .  S
Co907       N925   2.165   1_545  S
Co907       N915   2.301   1_545  S
Co907       N947   2.176   1_554  S
Co907       N923   2.273       .  S
Co907      Cl951   2.358       .  S
N908        C946   1.337       .  A
N908        N915   1.296   1_545  A
N908       Co909   1.992       .  S
Co909       N912   2.063       .  S
Co909       N929   1.992       .  S
Co909       N916   2.036       .  S
Co909      Cl951   2.467       .  S
C910        N948   1.328       .  A
C910       C1419   1.403       .  S
N911        N918   1.302       .  A
N911        N941   1.317       .  A
N911       Co944   2.028   1_565  S
N912        N930   1.311   1_545  A
N912        N948   1.302   1_545  A
N913        C942   1.385       .  A
N913        N923   1.349       .  A
H914        C939   1.082       .  S
N915        N936   1.361       .  A
N916        N934   1.305       .  A
N916        N921   1.321       .  A
C917        N921   1.341       .  A
C917        C945   1.460       .  S
C917       C1433   1.415       .  S
N918        C933   1.331       .  A
N918       Co940   2.050   1_564  S
C919        N947   1.364       .  A
C919        C922   1.493       .  S
C919        H953   1.082       .  S
C922        N943   1.332       .  A
C922       C1397   1.464       .  S
N923        N929   1.321       .  A
N924        C950   1.327       .  A
N924        N926   1.318   1_556  A
N924       Co940   2.066       .  S
N925        C939   1.361       .  A
N926        N954   1.317       .  A
N926       Co944   2.039       .  S
H927        C950   1.081       .  S
H928        C945   1.078       .  S
N930       Co944   2.025   1_565  S
N931        N943   1.318       .  A
N931        N947   1.318       .  A
N931       Co940   2.017       .  S
C932        N936   1.412       .  A
C932        C946   1.441   1_565  S
C932       C1399   1.547       .  S
C933        C952   1.448       .  S
C933        H937   1.068   1_554  S
N934        C945   1.328       .  A
N934       Co944   2.038       .  S
C938        N954   1.344   1_556  A
C938        C950   1.454       .  S
C938       C1447   1.398       .  S
Co940      Cl951   2.412   1_556  S
N941        C952   1.337       .  A
C942       C1394   1.488       .  S
Co944      Cl951   2.457       .  S
C952       C1463   1.446       .  S
C955        N973   1.350       .  A
C955        C992   1.444       .  S
C955       C1386   1.404       .  S
N956        N973   1.318       .  A
N956        N978   1.314       .  A
N956       Co993   2.101       .  S
C957        N982   1.370       .  A
C957        C995   1.496       .  S
C957       H1002   1.081       .  S
H958        C999   1.080       .  S
C959        N983   1.343       .  A
C959        C963   1.454       .  S
C959        H988   1.082       .  S
Co960       N978   2.025       .  S
Co960       N968   2.010       .  S
Co960      N1000   2.068       .  S
Co960       N976   2.020       .  S
Co960     Cl1004   2.547   1_655  S
N961        C999   1.368       .  A
N961        N968   1.318       .  A
N961       Co962   2.197   1_655  S
Co962       N965   2.202       .  S
Co962       N982   2.229       .  S
Co962       N969   2.179       .  S
Co962     Cl1004   2.322       .  S
C963       N1001   1.376       .  A
C963       C1382   1.492       .  S
N964        N971   1.313   1_455  A
N964        N994   1.312       .  A
N964       Co997   2.016       .  S
N965        N983   1.321       .  A
N965       N1001   1.345       .  A
N966        C995   1.331   1_655  A
N966        N976   1.320       .  A
H967        C992   1.081       .  S
N968        N989   1.317       .  A
N969        N987   1.311       .  A
N969        N974   1.344       .  A
C970        N974   1.378       .  A
C970        C998   1.429       .  S
C970       C1378   1.468       .  S
N971        C986   1.337       .  A
N971       Co993   2.074       .  S
C972       N1000   1.347       .  A
C972        C975   1.468       .  S
C972       H1006   1.082       .  S
C975        N996   1.337       .  A
C975       C1389   1.447       .  S
N976        N982   1.324   1_655  A
N977       C1003   1.337       .  A
N977        N979   1.314       .  A
N977       Co993   2.049   1_455  S
N978        C992   1.329       .  A
N979       N1007   1.318       .  A
N979       Co997   2.061       .  S
H980       C1003   1.070       .  S
H981        C998   1.082       .  S
N983       Co997   2.073       .  S
N984        N996   1.315       .  A
N984       N1000   1.311       .  A
N984       Co993   2.094       .  S
C985        N989   1.329       .  A
C985        C999   1.493       .  S
C985       C1383   1.471       .  S
C986       C1005   1.446       .  S
C986        H990   1.070       .  S
N987        C998   1.329       .  A
N987       Co997   2.018       .  S
C991       N1007   1.342       .  A
C991       C1003   1.442       .  S
C991       C1388   1.406       .  S
Co993     Cl1004   2.349   1_655  S
N994       C1005   1.337   1_455  A
C995       C1380   1.481       .  S
Co997     Cl1004   2.469       .  S
C1005      C1391   1.404       .  S
C1008      N1026   1.331       .  A
C1008      C1045   1.461       .  S
C1008      C1385   1.405       .  S
N1009      N1026   1.309       .  A
N1009      N1031   1.314       .  A
N1009     Co1046   2.002       .  S
C1010      N1035   1.372       .  A
C1010      C1048   1.499       .  S
C1010      H1055   1.079       .  S
H1011      C1052   1.078       .  S
C1012      N1036   1.336       .  A
C1012      C1016   1.436       .  S
C1012      H1041   1.080       .  S
Co1013     N1031   2.097       .  S
Co1013     N1021   2.004       .  S
Co1013     N1053   2.058       .  S
Co1013     N1029   2.039       .  S
Co1013    Cl1057   2.515   1_565  S
N1014      C1052   1.371       .  A
N1014      N1021   1.320       .  A
N1014     Co1015   2.228   1_565  S
Co1015     N1018   2.207       .  S
Co1015     N1035   2.213       .  S
Co1015     N1022   2.230       .  S
Co1015    Cl1057   2.344       .  S
C1016      N1054   1.380       .  A
C1016      C1366   1.485   1_545  S
N1017      N1024   1.314   1_545  A
N1017      N1047   1.293       .  A
N1017     Co1050   2.008       .  S
N1018      N1036   1.313       .  A
N1018      N1054   1.346       .  A
N1019      C1048   1.333       .  A
N1019      N1029   1.318   1_545  A
H1020      C1045   1.080       .  S
N1021      N1042   1.315       .  A
N1022      N1040   1.311       .  A
N1022      N1027   1.351       .  A
C1023      N1027   1.387       .  A
C1023      C1051   1.426       .  S
C1023      C1363   1.486       .  S
N1024      C1039   1.364       .  A
N1024     Co1046   2.097       .  S
C1025      N1053   1.335       .  A
C1025      C1028   1.441   1_565  S
C1025      H1059   1.076       .  S
C1028      N1049   1.338       .  A
C1028      C1376   1.439       .  S
N1029      N1035   1.319   1_565  A
N1030      C1056   1.333       .  A
N1030      N1032   1.312       .  A
N1030     Co1046   2.074   1_545  S
N1031      C1045   1.336       .  A
N1032      N1060   1.311       .  A
N1032     Co1050   1.989       .  S
H1033      C1056   1.070       .  S
H1034      C1051   1.083       .  S
N1036     Co1050   2.048       .  S
N1037      N1049   1.306   1_565  A
N1037      N1053   1.314       .  A
N1037     Co1046   2.058       .  S
C1038      N1042   1.326       .  A
C1038      C1052   1.497       .  S
C1038      C1369   1.473       .  S
C1039      C1058   1.474       .  S
C1039      H1043   1.073       .  S
N1040      C1051   1.331       .  A
N1040     Co1050   2.003       .  S
C1044      N1060   1.325       .  A
C1044      C1056   1.454       .  S
C1044      C1372   1.391       .  S
Co1046    Cl1057   2.436   1_565  S
N1047      C1058   1.317   1_545  A
C1048      C1367   1.490       .  S
Co1050    Cl1057   2.464       .  S
C1058      C1373   1.444       .  S
C1061      N1079   1.340       .  A
C1061      C1098   1.426       .  S
C1061      C1387   1.411       .  S
N1062      N1079   1.322       .  A
N1062      N1084   1.315       .  A
N1062     Co1099   2.044       .  S
C1063      N1088   1.332       .  A
C1063      C1101   1.446       .  S
C1063      H1108   1.082       .  S
H1064      C1105   1.082       .  S
C1065      N1089   1.365   1_565  A
C1065      C1069   1.486       .  S
C1065      H1094   1.079       .  S
Co1066     N1084   2.056   1_545  S
Co1066     N1074   2.105       .  S
Co1066     N1106   2.108       .  S
Co1066     N1082   2.102       .  S
Co1066    Cl1110   2.341       .  S
N1067      C1105   1.347       .  A
N1067      N1074   1.314       .  A
N1067     Co1068   2.072       .  S
Co1068     N1071   2.009       .  S
Co1068     N1088   2.015       .  S
Co1068     N1075   2.011       .  S
Co1068    Cl1110   2.549       .  S
C1069      N1107   1.328   1_565  A
C1069      C1356   1.463       .  S
N1070      N1077   1.314       .  A
N1070      N1100   1.345       .  A
N1070     Co1103   2.197   1_565  S
N1071      N1089   1.322       .  A
N1071      N1107   1.317       .  A
N1072      C1101   1.348       .  A
N1072      N1082   1.317       .  A
H1073      C1098   1.064       .  S
N1074      N1095   1.314       .  A
N1075      N1093   1.319       .  A
N1075      N1080   1.319       .  A
C1076      N1080   1.329       .  A
C1076      C1104   1.506       .  S
C1076      C1352   1.490       .  S
N1077      C1092   1.332       .  A
N1077     Co1099   2.023       .  S
C1078      N1106   1.341       .  A
C1078      C1081   1.447       .  S
C1078      H1112   1.063       .  S
C1081      N1102   1.327       .  A
C1081      C1361   1.420       .  S
N1082      N1088   1.310       .  A
N1083      C1109   1.341       .  A
N1083      N1085   1.319       .  A
N1083     Co1099   2.077   1_545  S
N1084      C1098   1.331       .  A
N1085      N1113   1.340       .  A
N1085     Co1103   2.164       .  S
H1086      C1109   1.082   1_565  S
H1087      C1104   1.081       .  S
N1089     Co1103   2.202       .  S
N1090      N1102   1.315       .  A
N1090      N1106   1.320       .  A
N1090     Co1099   2.017   1_545  S
C1091      N1095   1.337       .  A
C1091      C1105   1.467       .  S
C1091      C1360   1.449       .  S
C1092      C1111   1.432       .  S
C1092      H1096   1.082       .  S
N1093      C1104   1.376       .  A
N1093     Co1103   2.233       .  S
C1097      N1113   1.369       .  A
C1097      C1109   1.449       .  S
C1097      C1350   1.474       .  S
Co1099    Cl1110   2.501   1_565  S
N1100      C1111   1.378       .  A
C1101      C1358   1.403       .  S
Co1103    Cl1110   2.320       .  S
C1111      C1353   1.473       .  S
C1114      N1132   1.323       .  A
C1114      C1151   1.442       .  S
C1114      C1371   1.398       .  S
N1115      N1132   1.310       .  A
N1115      N1137   1.308       .  A
N1115     Co1152   2.000       .  S
C1116      N1141   1.336       .  A
C1116      C1154   1.449       .  S
C1116      H1161   1.079       .  S
H1117      C1158   1.076       .  S
C1118      N1142   1.379       .  A
C1118      C1122   1.519       .  S
C1118      H1147   1.082       .  S
Co1119     N1137   2.033   1_455  S
Co1119     N1127   2.084       .  S
Co1119     N1159   2.110       .  S
Co1119     N1135   2.035       .  S
Co1119    Cl1163   2.400       .  S
N1120      C1158   1.323       .  A
N1120      N1127   1.323       .  A
N1120     Co1121   2.069       .  S
Co1121     N1124   2.056       .  S
Co1121     N1141   2.042       .  S
Co1121     N1128   2.010       .  S
Co1121    Cl1163   2.549       .  S
C1122      N1160   1.333   1_655  A
C1122      C1337   1.512       .  S
N1123      N1130   1.319       .  A
N1123      N1153   1.352       .  A
N1123     Co1156   2.263   1_655  S
N1124      N1142   1.319   1_455  A
N1124      N1160   1.322       .  A
N1125      C1154   1.334       .  A
N1125      N1135   1.307       .  A
H1126      C1151   1.083       .  S
N1127      N1148   1.325   1_455  A
N1128      N1146   1.322       .  A
N1128      N1133   1.315       .  A
C1129      N1133   1.325       .  A
C1129      C1157   1.509       .  S
C1129      C1341   1.487       .  S
N1130      C1145   1.325       .  A
N1130     Co1152   1.988       .  S
C1131      N1159   1.358       .  A
C1131      C1134   1.481       .  S
C1131      H1165   1.069       .  S
C1134      N1155   1.323       .  A
C1134      C1345   1.428       .  S
N1135      N1141   1.310       .  A
N1136      C1162   1.325       .  A
N1136      N1138   1.305   1_655  A
N1136     Co1152   1.981       .  S
N1137      C1151   1.335       .  A
N1138      N1166   1.349       .  A
N1138     Co1156   2.226       .  S
H1139      C1162   1.083       .  S
H1140      C1157   1.079       .  S
N1142     Co1156   2.250   1_655  S
N1143      N1155   1.301       .  A
N1143      N1159   1.314       .  A
N1143     Co1152   2.020   1_455  S
C1144      N1148   1.331       .  A
C1144      C1158   1.435   1_655  S
C1144      C1347   1.422       .  S
C1145      C1164   1.416       .  S
C1145      H1149   1.082       .  S
N1146      C1157   1.376       .  A
N1146     Co1156   2.247       .  S
C1150      N1166   1.389       .  A
C1150      C1162   1.420   1_455  S
C1150      C1343   1.481       .  S
Co1152    Cl1163   2.458   1_655  S
N1153      C1164   1.390       .  A
C1154      C1357   1.405       .  S
Co1156    Cl1163   2.340       .  S
C1164      C1339   1.481       .  S
C1167      N1185   1.336       .  A
C1167      C1204   1.456       .  S
C1167      C1390   1.452       .  S
N1168      N1185   1.318   1_455  A
N1168      N1190   1.311   1_455  A
N1168     Co1205   2.023       .  S
C1169      N1194   1.345       .  A
C1169      C1207   1.449       .  S
C1169      H1214   1.074       .  S
H1170      C1211   1.072       .  S
C1171      N1195   1.366   1_565  A
C1171      C1175   1.491       .  S
C1171      H1200   1.080       .  S
Co1172     N1190   2.114   1_545  S
Co1172     N1180   2.043       .  S
Co1172     N1212   2.112   1_655  S
Co1172     N1188   2.037       .  S
Co1172    Cl1216   2.444       .  S
N1173      C1211   1.354       .  A
N1173      N1180   1.315       .  A
N1173     Co1174   2.107       .  S
Co1174     N1177   2.033       .  S
Co1174     N1194   2.105       .  S
Co1174     N1181   2.044       .  S
Co1174    Cl1216   2.497       .  S
C1175      N1213   1.333   1_565  A
C1175      C1334   1.476       .  S
N1176      N1183   1.316       .  A
N1176      N1206   1.340       .  A
N1176     Co1209   2.147   1_565  S
N1177      N1195   1.317       .  A
N1177      N1213   1.316       .  A
N1178      C1207   1.334       .  A
N1178      N1188   1.308       .  A
H1179      C1204   1.060       .  S
N1180      N1201   1.302       .  A
N1181      N1199   1.319   1_655  A
N1181      N1186   1.317       .  A
C1182      N1186   1.334   1_455  A
C1182      C1210   1.502       .  S
C1182      C1335   1.492       .  S
N1183      C1198   1.320       .  A
N1183     Co1205   2.031       .  S
C1184      N1212   1.350       .  A
C1184      C1187   1.461       .  S
C1184      H1218   1.067       .  S
C1187      N1208   1.337       .  A
C1187      C1359   1.453       .  S
N1188      N1194   1.316       .  A
N1189      C1215   1.314       .  A
N1189      N1191   1.317       .  A
N1189     Co1205   2.019   1_545  S
N1190      C1204   1.343       .  A
N1191      N1219   1.342       .  A
N1191     Co1209   2.150       .  S
H1192      C1215   1.068   1_565  S
H1193      C1210   1.082       .  S
N1195     Co1209   2.188   1_655  S
N1196      N1208   1.315       .  A
N1196      N1212   1.312       .  A
N1196     Co1205   2.036   1_545  S
C1197      N1201   1.333       .  A
C1197      C1211   1.455       .  S
C1197      C1374   1.456   1_545  S
C1198      C1217   1.422       .  S
C1198      H1202   1.068       .  S
N1199      C1210   1.371       .  A
N1199     Co1209   2.207       .  S
C1203      N1219   1.371       .  A
C1203      C1215   1.411       .  S
C1203      C1330   1.449       .  S
Co1205    Cl1216   2.442   1_465  S
N1206      C1217   1.369       .  A
C1207      C1346   1.443   1_655  S
Co1209    Cl1216   2.400   1_455  S
C1217      C1332   1.449       .  S
C1220      N1238   1.337       .  A
C1220      C1257   1.460       .  S
C1220      C1362   1.407       .  S
N1221      N1238   1.310       .  A
N1221      N1243   1.316       .  A
N1221     Co1258   2.048       .  S
C1222      N1247   1.379       .  A
C1222      C1260   1.518       .  S
C1222      H1267   1.081       .  S
H1223      C1264   1.081   1_565  S
C1224      N1248   1.330       .  A
C1224      C1228   1.436       .  S
C1224      H1253   1.082       .  S
Co1225     N1243   2.055       .  S
Co1225     N1233   2.015       .  S
Co1225     N1265   2.061       .  S
Co1225     N1241   2.042       .  S
Co1225    Cl1269   2.521       .  S
N1226      C1264   1.357       .  A
N1226      N1233   1.326       .  A
N1226     Co1227   2.183       .  S
Co1227     N1230   2.237   1_545  S
Co1227     N1247   2.242   1_455  S
Co1227     N1234   2.174   1_455  S
Co1227    Cl1269   2.344       .  S
C1228      N1266   1.380       .  A
C1228      C1328   1.475       .  S
N1229      N1236   1.317       .  A
N1229      N1259   1.316   1_545  A
N1229     Co1262   2.080   1_455  S
N1230      N1248   1.320       .  A
N1230      N1266   1.345       .  A
N1231      C1260   1.335   1_455  A
N1231      N1241   1.321       .  A
H1232      C1257   1.082       .  S
N1233      N1254   1.316       .  A
N1234      N1252   1.310       .  A
N1234      N1239   1.343       .  A
C1235      N1239   1.381       .  A
C1235      C1263   1.445       .  S
C1235      C1321   1.490       .  S
N1236      C1251   1.332       .  A
N1236     Co1258   2.027       .  S
C1237      N1265   1.331       .  A
C1237      C1240   1.487   1_455  S
C1237      H1271   1.078       .  S
C1240      N1261   1.323       .  A
C1240      C1348   1.409       .  S
N1241      N1247   1.318   1_455  A
N1242      C1268   1.349       .  A
N1242      N1244   1.301       .  A
N1242     Co1258   2.037   1_655  S
N1243      C1257   1.344       .  A
N1244      N1272   1.297       .  A
N1244     Co1262   2.007       .  S
H1245      C1268   1.070       .  S
H1246      C1263   1.082   1_565  S
N1248     Co1262   1.998   1_465  S
N1249      N1261   1.302       .  A
N1249      N1265   1.300   1_655  A
N1249     Co1258   2.000   1_655  S
C1250      N1254   1.334       .  A
C1250      C1264   1.479       .  S
C1250      C1325   1.445       .  S
C1251      C1270   1.443       .  S
C1251      H1255   1.082       .  S
N1252      C1263   1.338       .  A
N1252     Co1262   2.072       .  S
C1256      N1272   1.326       .  A
C1256      C1268   1.448       .  S
C1256      C1375   1.417       .  S
Co1258    Cl1269   2.374       .  S
N1259      C1270   1.347   1_565  A
C1260      C1324   1.511       .  S
Co1262    Cl1269   2.438   1_655  S
C1270      C1392   1.409   1_445  S
C1273      C1274   1.374   1_655  D
C1273      C1480   1.498       .  S
C1273      C1488   1.505       .  S
C1274      C1336   1.509       .  S
C1274      C1344   1.502       .  S
C1275      C1276   1.373       .  D
C1275      C1400   1.563       .  S
C1275      C1415   1.557       .  S
C1276      C1333   1.495       .  S
C1276      C1365   1.501       .  S
C1277      C1278   1.368       .  D
C1277      C1472   1.496   1_455  S
C1277      C1486   1.466       .  S
C1278      C1331   1.468       .  S
C1278      C1379   1.498       .  S
C1279      C1280   1.357       .  D
C1279      C1407   1.470       .  S
C1279      C1413   1.466       .  S
C1280      C1329   1.472       .  S
C1280      C1355   1.481       .  S
C1281      C1282   1.361       .  D
C1281      C1544   1.464       .  S
C1281      C1598   1.475       .  S
C1282      C1342   1.509       .  S
C1282      C1351   1.510       .  S
C1283      C1284   1.372       .  D
C1283      C1560   1.478       .  S
C1283      C1600   1.484       .  S
C1284      C1340   1.504       .  S
C1284      C1364   1.504       .  S
C1285      C1286   1.377       .  D
C1285      C1541   1.539       .  S
C1285      C1569   1.537       .  S
C1286      C1354   1.492       .  S
C1286      C1377   1.489       .  S
C1287      C1288   1.368       .  D
C1287      C1405   1.510       .  S
C1287      C1437   1.485       .  S
C1288      C1326   1.461       .  S
C1288      C1349   1.487       .  S
C1289      C1290   1.371       .  D
C1289      C1477   1.493       .  S
C1289      C1500   1.499       .  S
C1290      C1404   1.513       .  S
C1290      C1423   1.507       .  S
C1291      C1292   1.369       .  D
C1291      C1468   1.521       .  S
C1291      C1497   1.518       .  S
C1292      C1401   1.477   1_556  S
C1292      C1449   1.483       .  S
C1293      C1294   1.364       .  D
C1293      C1572   1.470       .  S
C1293      C1585   1.484       .  S
C1294      C1411   1.474       .  S
C1294      C1454   1.475       .  S
C1295      C1296   1.364       .  D
C1295      C1583   1.487       .  S
C1295      C1595   1.480       .  S
C1296      C1410   1.514       .  S
C1296      C1428   1.500       .  S
C1297      C1298   1.367       .  D
C1297      C1552   1.501       .  S
C1297      C1594   1.491       .  S
C1298      C1426   1.488       .  S
C1298      C1440   1.503       .  S
C1299      C1300   1.372       .  D
C1299      C1475   1.495   1_655  S
C1299      C1510   1.494   1_655  S
C1300      C1323   1.532       .  S
C1300      C1338   1.529       .  S
C1301      C1302   1.379       .  D
C1301      C1473   1.550       .  S
C1301      C1521   1.542       .  S
C1302      C1393   1.505       .  S
C1302      C1421   1.511       .  S
C1303      C1304   1.368       .  D
C1303      C1540   1.464       .  S
C1303      C1581   1.493       .  S
C1304      C1484   1.528       .  S
C1304      C1496   1.509       .  S
C1305      C1306   1.373       .  D
C1305      C1562   1.467       .  S
C1305      C1580   1.492       .  S
C1306      C1482   1.510       .  S
C1306      C1526   1.483       .  S
C1307      C1308   1.378       .  D
C1307      C1537   1.504       .  S
C1307      C1549   1.520       .  S
C1308      C1494   1.501       .  S
C1308      C1507   1.517       .  S
C1309      C1310   1.381       .  D
C1309      C1470   1.500       .  S
C1309      C1512   1.476       .  S
C1310      C1327   1.489       .  S
C1310      C1381   1.507       .  S
C1311      C1312   1.358       .  D
C1311      C1398   1.480       .  S
C1311      C1435   1.472       .  S
C1312      C1322   1.504       .  S
C1312      C1368   1.513       .  S
C1313      C1314   1.361       .  D
C1313      C1466   1.480       .  S
C1313      C1524   1.469       .  S
C1314      C1395   1.476       .  S
C1314      C1452   1.493       .  S
C1315      C1316   1.366       .  D
C1315      C1548   1.511       .  S
C1315      C1558   1.517       .  S
C1316      C1513   1.494       .  S
C1316      C1527   1.502       .  S
C1317      C1318   1.352       .  D
C1317      C1556   1.489       .  S
C1317      C1566   1.485       .  S
C1318      C1370   1.497       .  S
C1318      C1384   1.494       .  S
C1319      C1320   1.372       .  D
C1319      C1546   1.529       .  S
C1319      C1567   1.526       .  S
C1320      C1441   1.495       .  S
C1320      C1455   1.489       .  S
C1321      C1322   1.241       .  T
C1323      C1324   1.258       .  T
C1325      C1326   1.214       .  T
C1327      C1328   1.232       .  T
C1329      C1330   1.220   1_565  T
C1331      C1332   1.218       .  T
C1333      C1334   1.234       .  T
C1335      C1336   1.243       .  T
C1337      C1338   1.256       .  T
C1339      C1340   1.239       .  T
C1341      C1342   1.242       .  T
C1343      C1344   1.239       .  T
C1345      C1346   1.209       .  T
C1347      C1348   1.191       .  T
C1349      C1350   1.229       .  T
C1351      C1352   1.243       .  T
C1353      C1354   1.232       .  T
C1355      C1356   1.226       .  T
C1357      C1358   1.192       .  T
C1359      C1360   1.218       .  T
C1361      C1362   1.193       .  T
C1363      C1364   1.240       .  T
C1365      C1366   1.238       .  T
C1367      C1368   1.244       .  T
C1369      C1370   1.234       .  T
C1371      C1372   1.175       .  T
C1373      C1374   1.219       .  T
C1375      C1376   1.201       .  T
C1377      C1378   1.229       .  T
C1379      C1380   1.236       .  T
C1381      C1382   1.241       .  T
C1383      C1384   1.232       .  T
C1385      C1386   1.193       .  T
C1387      C1388   1.186       .  T
C1389      C1390   1.216       .  T
C1391      C1392   1.188       .  T
C1393      C1394   1.241       .  T
C1395      C1396   1.223       .  T
C1397      C1398   1.226       .  T
C1399      C1400   1.274       .  T
C1401      C1402   1.222       .  T
C1403      C1404   1.246       .  T
C1405      C1406   1.243       .  T
C1407      C1408   1.218       .  T
C1409      C1410   1.246       .  T
C1411      C1412   1.221       .  T
C1413      C1414   1.217   1_565  T
C1415      C1416   1.270       .  T
C1417      C1418   1.215       .  T
C1419      C1420   1.207   1_565  T
C1421      C1422   1.244       .  T
C1423      C1424   1.242       .  T
C1425      C1426   1.232       .  T
C1427      C1428   1.238       .  T
C1429      C1430   1.203       .  T
C1431      C1432   1.206       .  T
C1433      C1434   1.193       .  T
C1435      C1436   1.219       .  T
C1437      C1438   1.229       .  T
C1439      C1440   1.239       .  T
C1441      C1442   1.233       .  T
C1443      C1444   1.193       .  T
C1445      C1446   1.215       .  T
C1447      C1448   1.183       .  T
C1449      C1450   1.227       .  T
C1451      C1452   1.233       .  T
C1453      C1454   1.222       .  T
C1455      C1456   1.230       .  T
C1457      C1458   1.193       .  T
C1459      C1460   1.203       .  T
C1461      C1462   1.187       .  T
C1463      C1464   1.209       .  T
C1465      C1466   1.224       .  T
C1467      C1468   1.249       .  T
C1469      C1470   1.239       .  T
C1471      C1472   1.234       .  T
C1473      C1474   1.268       .  T
C1475      C1476   1.235       .  T
C1477      C1478   1.233       .  T
C1479      C1480   1.236       .  T
C1481      C1482   1.243       .  T
C1483      C1484   1.254       .  T
C1485      C1486   1.218       .  T
C1487      C1488   1.241       .  T
C1489      C1490   1.206       .  T
C1491      C1492   1.218       .  T
C1493      C1494   1.239       .  T
C1495      C1496   1.244       .  T
C1497      C1498   1.248       .  T
C1499      C1500   1.236       .  T
C1501      C1502   1.210       .  T
C1503      C1504   1.173       .  T
C1505      C1506   1.196       .  T
C1507      C1508   1.248       .  T
C1509      C1510   1.234       .  T
C1511      C1512   1.222       .  T
C1513      C1514   1.234       .  T
C1515      C1516   1.185       .  T
C1517      C1518   1.200   1_455  T
C1519      C1520   1.198       .  T
C1521      C1522   1.263       .  T
C1523      C1524   1.218       .  T
C1525      C1526   1.227       .  T
C1527      C1528   1.239       .  T
C1529      C1530   1.205       .  T
C1531      C1532   1.183       .  T
C1533      C1534   1.185       .  T
C1535      C1536   1.195       .  T
C1537      C1538   1.241       .  T
C1539      C1540   1.215       .  T
C1541      C1542   1.262       .  T
C1543      C1544   1.215       .  T
C1545      C1546   1.255       .  T
C1547      C1548   1.243       .  T
C1549      C1550   1.249       .  T
C1551      C1552   1.236       .  T
C1553      C1554   1.218       .  T
C1555      C1556   1.228       .  T
C1557      C1558   1.247       .  T
C1559      C1560   1.223       .  T
C1561      C1562   1.218       .  T
C1563      C1564   1.198       .  T
C1565      C1566   1.227       .  T
C1567      C1568   1.254       .  T
C1569      C1570   1.260       .  T
C1571      C1572   1.219       .  T
C1573      C1574   1.172       .  T
C1575      C1576   1.222       .  T
C1577      C1578   1.212       .  T
C1579      C1580   1.233       .  T
C1581      C1582   1.232       .  T
C1583      C1584   1.227       .  T
C1585      C1586   1.227       .  T
C1587      C1588   1.212       .  T
C1589      C1590   1.204       .  T
C1591      C1592   1.190       .  T
C1593      C1594   1.231       .  T
C1595      C1596   1.225       .  T
C1597      C1598   1.222       .  T
C1599      C1600   1.229       .  T
C1601      C1602   1.188       .  T
C1603      C1604   1.221       .  T
C1605      C1606   1.197       .  T
C1607      C1608   1.179       .  T
