geometry optimzed in LAMMPS
_audit_creation_date              2020-11-30 
_audit_creation_method            'lammps2cif' 
_symmetry_space_group_name_H-M    'P1' 
_symmetry_Int_Tables_number       1 
_symmetry_cell_setting            triclinic 
loop_ 
_symmetry_equiv_pos_as_xyz 
  x,y,z 
_cell_length_a                    21.07038776931877 
_cell_length_b                    23.017621794005898 
_cell_length_c                    22.47584291512618 
_cell_angle_alpha                 88.50351409532674 
_cell_angle_beta                  90.45368236699031 
_cell_angle_gamma                 90.2259824538055 
loop_ 
_atom_site_label 
_atom_site_type_symbol 
_atom_site_fract_x 
_atom_site_fract_y 
_atom_site_fract_z 
_atom_site_charge 
C1          C  0.41946668  0.65337432  0.66051134     0.04020
N2          N  0.49960273  0.39017367  0.72747192     0.00390
N3          N  0.48802145  0.35384354  0.77297487    -0.51730
N4          N  0.44445673  0.41171305  0.57260954     0.00710
N5          N  0.41694229  0.40757088  0.51963733    -0.53860
N6          N  0.49219196  0.37593327  0.57716372     0.01110
N7          N  0.49707462  0.34574223  0.52834267    -0.51700
N8          N  0.45395453  0.42838766  0.72394171     0.01440
N9          N  0.41320286  0.41790340  0.76759815    -0.54210
C10         C  0.42841243  0.36537017  0.79079465     1.02570
C11         C  0.45156881  0.36706784  0.49294942     1.02350
N12         N  0.42608396  0.57659098  0.55343722     0.00210
N13         N  0.40498926  0.60447376  0.50639050    -0.52310
N14         N  0.51188849  0.50615937  0.63454883     0.02090
N15         N  0.53411198  0.53938272  0.67705470    -0.53560
N16         N  0.53732202  0.51933876  0.58304515     0.00180
N17         N  0.57695967  0.56272761  0.59260671    -0.52570
N18         N  0.39232313  0.52984011  0.56369077     0.02440
N19         N  0.36484608  0.51508166  0.51335890    -0.53650
Mn20       Mn  0.42100876  0.47467449  0.63989497     1.18440
C21         C  0.37586850  0.56190625  0.47718567     1.04650
C22         C  0.56894646  0.57936287  0.64767477     1.05310
N23         N  0.61748644  0.33305945  0.57524402     0.00160
N24         N  0.60987430  0.28867991  0.53900968    -0.56150
N25         N  0.64140218  0.47264348  0.61653246     0.01350
N26         N  0.69069556  0.49963185  0.63775198    -0.56830
N27         N  0.61209562  0.44294274  0.65942463     0.00650
N28         N  0.64224120  0.45038837  0.70991682    -0.56420
N29         N  0.65630361  0.37022996  0.55013659     0.01750
N30         N  0.68375024  0.34860053  0.50431901    -0.57110
Mn31       Mn  0.55827712  0.36294852  0.65032097     1.10660
C32         C  0.65197916  0.30018938  0.49445771     1.05870
C33         C  0.69736435  0.47249551  0.69081476     1.05950
N34         N  0.56600423  0.57252598  0.48233771     0.00640
N35         N  0.57722664  0.62847528  0.48925088    -0.54730
N36         N  0.58726042  0.43654945  0.44297691     0.01320
N37         N  0.62642083  0.44585112  0.39840076    -0.51460
N38         N  0.53377585  0.46494567  0.43250480     0.00010
N39         N  0.53751938  0.49233894  0.38049884    -0.54300
N40         N  0.61932798  0.54379008  0.48867799     0.01030
N41         N  0.66760826  0.57904428  0.49140847    -0.51480
Mn42       Mn  0.48190298  0.51908658  0.49778812     1.20190
Mn43       Mn  0.62669001  0.45527204  0.52659007     1.10090
Cl44       Cl  0.52212537  0.45241822  0.58182101    -0.79450
C45         C  0.64119778  0.63101908  0.49822645     1.02880
C46         C  0.59741598  0.48536904  0.36282722     1.02680
C47         C  0.76797991  0.32355901  0.64666086     0.04020
C48         C  0.41317224  0.32849454  0.33248252     0.04020
C49         C  0.71363872  0.62335729  0.34259513     0.04020
C50         C  0.40868779  0.62795078  0.33743051     0.04020
C51         C  0.70399008  0.32027595  0.33583656     0.03860
C52         C  0.38468052  0.31631069  0.66177572     0.04020
C53         C  0.73720748  0.64275829  0.64774625     0.04020
C54         C  0.30226019  0.24604974  0.95224885     0.07070
C55         C  0.30100938  0.24154568  0.01365658     0.07070
C56         C  0.29895749  0.97842831  0.25679414     0.07070
C57         C  0.33695087  0.97790393  0.20800686     0.07070
C58         C  0.10800502  0.22889563  0.23740190     0.07070
C59         C  0.04314136  0.22813092  0.23724687     0.07070
C60         C  0.56123686  0.24771033  0.24114885     0.07070
C61         C  0.55947982  0.20424975  0.20049405     0.07070
C62         C  0.31258827  0.22209758  0.51680422     0.07070
C63         C  0.31234869  0.22284856  0.45418042     0.07070
C64         C  0.33821051  0.48299961  0.25496005     0.07070
C65         C  0.29520609  0.47948746  0.21003346     0.07070
C66         C  0.30386675  0.71779273  0.96441414     0.07070
C67         C  0.30326319  0.72115890  0.02522890     0.07070
C68         C  0.84966657  0.22566396  0.96873488     0.07070
C69         C  0.84405393  0.22628221  0.02994982     0.07070
C70         C  0.10757789  0.23280397  0.73097484     0.07070
C71         C  0.04319585  0.23099188  0.73210160     0.07070
C72         C  0.79244330  0.47728663  0.27621918     0.07070
C73         C  0.84264498  0.47448415  0.23777990     0.07070
C74         C  0.32245633  0.48845059  0.69946648     0.07070
C75         C  0.28351527  0.48697336  0.74826131     0.07070
C76         C  0.89449061  0.65863048  0.81493740     0.04020
N77         N  0.78548594  0.55032495  0.87885809     0.00390
N78         N  0.76094731  0.57094273  0.82840331    -0.51730
N79         N  0.93750765  0.58328958  0.93243373     0.00710
N80         N  0.99437685  0.60789732  0.93586281    -0.53860
N81         N  0.93715083  0.54452828  0.89173024     0.01110
N82         N  0.99298446  0.54187674  0.86583840    -0.51700
N83         N  0.78387542  0.59048235  0.91938784     0.01440
N84         N  0.75810887  0.63826609  0.89630491    -0.54210
C85         C  0.74833178  0.62748434  0.83802290     1.02570
C86         C  0.02814040  0.58090179  0.89426296     1.02350
N87         N  0.93213209  0.54040765  0.09681255     0.00210
N88         N  0.98828457  0.53704598  0.12307150    -0.52310
N89         N  0.78090302  0.58880341  0.06188642     0.02090
N90         N  0.75448042  0.63577139  0.08354682    -0.53560
N91         N  0.77936924  0.54656795  0.10244816     0.00180
N92         N  0.75123143  0.56466068  0.15084266    -0.52570
N93         N  0.93274963  0.58024171  0.05490369     0.02440
N94         N  0.98894495  0.60536990  0.05155028    -0.53650
Mn95       Mn  0.85626750  0.58900791  0.99212203     1.18440
C96         C  0.02272113  0.57741269  0.09378909     1.04650
C97         C  0.74012845  0.62190039  0.14092935     1.05310
N98         N  0.94038729  0.42596609  0.89806286     0.00160
N99         N  0.99635199  0.43060258  0.87256584    -0.56150
N100        N  0.78840016  0.37190272  0.92331625     0.01350
N101        N  0.76323146  0.32412816  0.90200827    -0.56830
N102        N  0.78926038  0.41291462  0.88149533     0.00650
N103        N  0.76515092  0.39283244  0.83170775    -0.56420
N104        N  0.94042355  0.38410215  0.93779383     0.01750
N105        N  0.99704436  0.35924354  0.94075736    -0.57110
Mn106      Mn  0.86054045  0.48324415  0.88454017     1.10660
C107        C  0.03085746  0.38942533  0.89992673     1.05870
C108        C  0.75291823  0.33599233  0.84349111     1.05950
N109        N  0.78034594  0.40927031  0.10453304     0.00640
N110        N  0.75155792  0.38863784  0.15270691    -0.54730
N111        N  0.93539394  0.38017077  0.06023630     0.01320
N112        N  0.99240689  0.35704115  0.05709457    -0.51460
N113        N  0.93404209  0.41919936  0.10076080     0.00010
N114        N  0.99053390  0.42394480  0.12631222    -0.54300
N115        N  0.78272589  0.36881723  0.06443213     0.01030
N116        N  0.75596458  0.32064803  0.08580890    -0.51480
Mn117      Mn  0.85413326  0.47884732  0.10424566     1.20190
Mn118      Mn  0.85935603  0.37291205  0.99637956     1.10090
Cl119      Cl  0.85011799  0.48094726  0.99418932    -0.79450
C120        C  0.74099447  0.33161287  0.14296234     1.02880
C121        C  0.02616971  0.38527163  0.09798140     1.02680
C122        C  0.88612465  0.30925277  0.18104909     0.04020
C123        C  0.20106632  0.34763948  0.83686519     0.04020
C124        C  0.20668145  0.61670447  0.84829871     0.04020
C125        C  0.90269907  0.30649675  0.82091293     0.04020
C126        C  0.88531627  0.64262997  0.18083466     0.04020
C127        C  0.87122708  0.44802216  0.72738598     0.07070
C128        C  0.85521393  0.50915479  0.72621106     0.07070
C129        C  0.19820290  0.61775873  0.13804986     0.04020
C130        C  0.20521674  0.34358894  0.13154879     0.04020
C131        C  0.30201568  0.98376823  0.78422092     0.07070
C132        C  0.26565400  0.98242145  0.73267228     0.07070
C133        C  0.56486905  0.75123375  0.21215278     0.07070
C134        C  0.56817920  0.70884804  0.25659991     0.07070
C135        C  0.54222536  0.23870800  0.74150341     0.07070
C136        C  0.61142665  0.24089651  0.75202134     0.07070
C137        C  0.75514159  0.14507353  0.83152345     0.04020
N138        N  0.59582095  0.88639433  0.72652034     0.00390
N139        N  0.63964846  0.84776172  0.71892168    -0.51730
N140        N  0.64119516  0.92307800  0.87104720     0.00710
N141        N  0.67017762  0.92465944  0.92331040    -0.53860
N142        N  0.60713335  0.87625338  0.86739190     0.01110
N143        N  0.61010475  0.84506859  0.91761481    -0.51700
N144        N  0.62006939  0.93823948  0.71684631     0.01440
N145        N  0.67491300  0.93390108  0.69152512    -0.54210
C146        C  0.69068244  0.88188993  0.71296493     1.02570
C147        C  0.64983991  0.87611605  0.95185137     1.02350
N148        N  0.61195536  0.08896327  0.86734073     0.00210
N149        N  0.61131051  0.11406457  0.91948517    -0.52310
N150        N  0.65487935  0.05173123  0.72952018     0.02090
N151        N  0.71104323  0.06814983  0.71178713    -0.53560
N152        N  0.61463088  0.09427446  0.72498535     0.00180
N153        N  0.64367157  0.14045658  0.70300719    -0.52570
N154        N  0.65370663  0.04726084  0.86776134     0.02440
N155        N  0.68230957  0.04228416  0.92006321    -0.53650
Mn156      Mn  0.64684124  0.98692211  0.79667845     1.18440
C157        C  0.65529794  0.08444723  0.95144770     1.04650
C158        C  0.70491759  0.12495392  0.70022950     1.05310
N159        N  0.47669626  0.88603571  0.87669530     0.00160
N160        N  0.48498905  0.86053727  0.92924741    -0.56150
N161        N  0.42263689  0.92007353  0.72868042     0.01350
N162        N  0.37434762  0.90073525  0.69690078    -0.56830
N163        N  0.46648113  0.88073328  0.72971723     0.00650
N164        N  0.45007061  0.83584840  0.69771012    -0.56420
N165        N  0.43607884  0.92815747  0.87909197     0.01750
N166        N  0.41471015  0.93214144  0.93407484    -0.57110
Mn167      Mn  0.53589886  0.87833059  0.79969311     1.10660
C168        C  0.44663096  0.89008818  0.96441224     1.05870
C169        C  0.38872714  0.84505097  0.68376456     1.05950
N170        N  0.47146057  0.09194749  0.72076923     0.00640
N171        N  0.45314481  0.13539161  0.68510555    -0.54730
N172        N  0.43744244  0.04956185  0.87163334     0.01320
N173        N  0.41468283  0.04583730  0.92605248    -0.51460
N174        N  0.47812710  0.09197342  0.86704738     0.00010
N175        N  0.48530699  0.11761471  0.91843627    -0.54300
N176        N  0.42729666  0.05194324  0.72315681     0.01030
N177        N  0.37863329  0.06862646  0.68957572    -0.51480
Mn178      Mn  0.54289158  0.09593869  0.79353815     1.20190
Mn179      Mn  0.42481290  0.98760547  0.79972941     1.10090
Cl180      Cl  0.53714217  0.98804431  0.79724179    -0.79450
C181        C  0.39165981  0.12404485  0.67200793     1.02880
C182        C  0.44588623  0.08781228  0.95449784     1.02680
C183        C  0.71211483  0.83098343  0.11783232     0.04020
C184        C  0.37321406  0.81142370  0.82204357     0.04020
C185        C  0.37052388  0.15964048  0.80683201     0.04020
C186        C  0.77027044  0.82497750  0.83680238     0.04020
C187        C  0.41103776  0.83284168  0.12726433     0.04020
C188        C  0.61364197  0.72872528  0.76899509     0.07070
C189        C  0.54416639  0.73521537  0.77390496     0.07070
C190        C  0.40605969  0.12603179  0.11831144     0.04020
C191        C  0.71092825  0.12393894  0.11661085     0.04020
C192        C  0.03706231  0.72492626  0.24505835     0.07070
C193        C  0.10201459  0.72582418  0.24504914     0.07070
C194        C  0.79695233  0.97640069  0.19028228     0.07070
C195        C  0.84844569  0.97501960  0.22805272     0.07070
C196        C  0.85029696  0.24066616  0.49681119     0.07070
C197        C  0.84225691  0.23552946  0.43476703     0.07070
C198        C  0.32367779  0.74565022  0.52167248     0.07070
C199        C  0.32065418  0.74101343  0.45915131     0.07070
C200        C  0.88806358  0.14342156  0.28536817     0.04020
N201        N  0.78901795  0.04183754  0.34676028     0.00390
N202        N  0.75572856  0.05944583  0.29950352    -0.51730
N203        N  0.94630919  0.07535020  0.39206892     0.00710
N204        N  0.00274308  0.09945608  0.39724199    -0.53860
N205        N  0.94765646  0.03206692  0.35637870     0.01110
N206        N  0.00580122  0.02555730  0.33585752    -0.51700
N207        N  0.79106174  0.08341770  0.38503196     0.01440
N208        N  0.75836923  0.12876225  0.36494955    -0.54210
C209        C  0.74263630  0.11629267  0.30829738     1.02570
C210        C  0.03928085  0.06738664  0.36273908     1.02350
N211        N  0.94073447  0.04768149  0.56332167     0.00210
N212        N  0.99434276  0.04665342  0.59386352    -0.52310
N213        N  0.79437562  0.09005427  0.51419284     0.02090
N214        N  0.76891411  0.14027896  0.52634610    -0.53560
N215        N  0.79285590  0.05399468  0.56022852     0.00180
N216        N  0.76762898  0.08097733  0.60464845    -0.52570
N217        N  0.94551605  0.08134666  0.51619636     0.02440
N218        N  0.00284966  0.10480317  0.51358662    -0.53650
Mn219      Mn  0.86834855  0.08540413  0.45104958     1.18440
C220        C  0.03224708  0.08224331  0.56210819     1.04650
C221        C  0.75700802  0.13616041  0.58452407     1.05310
N222        N  0.94215212  0.91098471  0.36333461     0.00160
N223        N  0.99939466  0.91369742  0.34001129    -0.56150
N224        N  0.78617359  0.86884740  0.40003718     0.01350
N225        N  0.75309555  0.82296236  0.38331503    -0.56830
N226        N  0.78572924  0.90842664  0.35707675     0.00650
N227        N  0.75217903  0.88969807  0.31140999    -0.56420
N228        N  0.94058120  0.87202285  0.40599465     0.01750
N229        N  0.99659318  0.84744136  0.41342571    -0.57110
Mn230      Mn  0.86449065  0.97334992  0.35174915     1.10660
C231        C  0.03269680  0.87466269  0.37256454     1.05870
C232        C  0.73734721  0.83375084  0.32538992     1.05950
N233        N  0.79493670  0.91566963  0.57530495     0.00640
N234        N  0.77566218  0.89524891  0.62692798    -0.54730
N235        N  0.94466219  0.88389891  0.52941475     0.01320
N236        N  0.00118646  0.85910085  0.52870459    -0.51460
N237        N  0.94450246  0.92565888  0.56742964     0.00010
N238        N  0.00089968  0.93081107  0.59298567    -0.54300
N239        N  0.79239759  0.87387797  0.53678875     0.01030
N240        N  0.76916189  0.82596615  0.56195779    -0.51480
Mn241      Mn  0.86572291  0.98561418  0.56993736     1.20190
Mn242      Mn  0.86404532  0.87117895  0.46825549     1.10090
Cl243      Cl  0.86248161  0.97873698  0.46035932    -0.79450
C244        C  0.76167267  0.83859432  0.61953847     1.02880
C245        C  0.03537567  0.88911886  0.56817481     1.02680
C246        C  0.87996241  0.80516417  0.29607865     0.04020
C247        C  0.21008944  0.83894048  0.34135961     0.04020
C248        C  0.20840104  0.84431982  0.62897784     0.04020
C249        C  0.90011981  0.15624103  0.63960953     0.04020
C250        C  0.90470236  0.81303662  0.65302266     0.04020
C251        C  0.84387553  0.72556041  0.51627275     0.07070
C252        C  0.83228906  0.72104514  0.45467919     0.07070
C253        C  0.21528080  0.11552442  0.33873481     0.04020
C254        C  0.20315942  0.12049021  0.62709554     0.04020
C255        C  0.11232787  0.73125007  0.73862772     0.07070
C256        C  0.04790407  0.73326970  0.73884213     0.07070
C257        C  0.85115908  0.01053919  0.74990960     0.07070
C258        C  0.86795925  0.94996119  0.74837043     0.07070
C259        C  0.84499697  0.73757975  0.97002415     0.07070
C260        C  0.84377179  0.73251302  0.03145832     0.07070
C261        C  0.96234812  0.78907020  0.67905768    -0.06760
C262        C  0.01037127  0.76947445  0.70023223    -0.08320
C263        C  0.89406709  0.92097406  0.69630641    -0.06760
C264        C  0.90405137  0.87653362  0.66832941    -0.08320
C265        C  0.90259060  0.79370285  0.58957931    -0.06760
C266        C  0.88638198  0.76723618  0.54498868    -0.08320
C267        C  0.88890869  0.09477412  0.66753528    -0.06760
C268        C  0.87397780  0.05284377  0.70143138    -0.08320
C269        C  0.14959878  0.76733143  0.69903049    -0.06760
C270        C  0.18109937  0.79901425  0.66762215    -0.08320
C271        C  0.86447876  0.75819515  0.40853734    -0.06760
C272        C  0.87712258  0.78444827  0.36112002    -0.08320
C273        C  0.14986374  0.09772521  0.59405311    -0.06760
C274        C  0.09767566  0.08900410  0.57498928    -0.08320
C275        C  0.10662382  0.06994589  0.36585988    -0.06760
C276        C  0.16145663  0.08384405  0.36323514    -0.08320
C277        C  0.78944871  0.79932175  0.66368615    -0.06760
C278        C  0.84442016  0.79010201  0.67736414    -0.08320
C279        C  0.83942051  0.18594426  0.64481518    -0.06760
C280        C  0.78861661  0.17912883  0.61922558    -0.08320
C281        C  0.10126176  0.88009844  0.57985348    -0.06760
C282        C  0.15410865  0.86815726  0.59630573    -0.08320
C283        C  0.10009934  0.87392424  0.37469050    -0.06760
C284        C  0.15577116  0.86581257  0.36842680    -0.08320
C285        C  0.76435875  0.79274875  0.28429855    -0.06760
C286        C  0.81943412  0.78186488  0.27190699    -0.08320
C287        C  0.77294971  0.15583969  0.26571806    -0.06760
C288        C  0.82910211  0.16622824  0.25710759    -0.08320
C289        C  0.24862694  0.80797640  0.38756884    -0.06760
C290        C  0.28007756  0.78017446  0.42379969    -0.08320
C291        C  0.28528703  0.78871637  0.55285521    -0.06760
C292        C  0.25375865  0.81786725  0.58652447    -0.08320
C293        C  0.87404298  0.19342676  0.39507184    -0.06760
C294        C  0.88470246  0.16596595  0.34914056    -0.08320
C295        C  0.90927082  0.17158223  0.57477695    -0.06760
C296        C  0.89309759  0.20062703  0.53026747    -0.08320
C297        C  0.87815860  0.86853858  0.27535264    -0.06760
C298        C  0.87052154  0.91793986  0.25335061    -0.08320
C299        C  0.88506715  0.07997540  0.26891137    -0.06760
C300        C  0.87493637  0.03083249  0.24970916    -0.08320
C301        C  0.17953357  0.79804631  0.30056483    -0.06760
C302        C  0.14139012  0.76801590  0.27467758    -0.08320
C303        C  0.99495580  0.76804323  0.26687188    -0.06760
C304        C  0.94149839  0.78473360  0.27577726    -0.08320
C305        C  0.74144410  0.07433148  0.14914713    -0.06760
C306        C  0.76783244  0.03100197  0.16923465    -0.08320
C307        C  0.83093154  0.85263307  0.81033007    -0.06760
C308        C  0.85428888  0.89977020  0.79058038    -0.08320
C309        C  0.80814526  0.78293649  0.93934862    -0.06760
C310        C  0.78367171  0.81225588  0.89997977    -0.08320
C311        C  0.72031592  0.77931955  0.81655266    -0.06760
C312        C  0.66712565  0.75796210  0.80262141    -0.08320
C313        C  0.44559241  0.79468635  0.81872244    -0.06760
C314        C  0.50011622  0.77401458  0.80841229    -0.08320
C315        C  0.76250892  0.79347338  0.09520687    -0.06760
C316        C  0.80070704  0.76756580  0.06587875    -0.08320
C317        C  0.74131987  0.88075331  0.14860508    -0.06760
C318        C  0.76696847  0.92322067  0.16928892    -0.08320
C319        C  0.66547994  0.09151580  0.01349014    -0.06760
C320        C  0.67975096  0.10178110  0.06391439    -0.08320
C321        C  0.44722902  0.09168844  0.01722341    -0.06760
C322        C  0.43795270  0.10099168  0.06848054    -0.08320
C323        C  0.44044419  0.86375181  0.07754211    -0.06760
C324        C  0.44657783  0.88137953  0.02723954    -0.08320
C325        C  0.71834872  0.88924072  0.76985672    -0.06760
C326        C  0.73407454  0.87390594  0.81927778    -0.08320
C327        C  0.34054720  0.17875345  0.74973667    -0.06760
C328        C  0.34897233  0.16560417  0.69808444    -0.08320
C329        C  0.34903448  0.80191328  0.71358094    -0.06760
C330        C  0.34510525  0.78887052  0.76634047    -0.08320
C331        C  0.66278209  0.86347951  0.01348816    -0.06760
C332        C  0.67947098  0.85214593  0.06385974    -0.08320
C333        C  0.77800166  0.08040453  0.82143061    -0.06760
C334        C  0.80986317  0.04095708  0.79644491    -0.08320
C335        C  0.77793216  0.16998217  0.77580172    -0.06760
C336        C  0.75211637  0.16015619  0.72899650    -0.08320
C337        C  0.49326108  0.20503857  0.78025283    -0.06760
C338        C  0.44168514  0.18137526  0.79800878    -0.08320
C339        C  0.68663010  0.17299112  0.82692900    -0.06760
C340        C  0.64417031  0.20439031  0.80189306    -0.08320
C341        C  0.50458229  0.77519341  0.18850477    -0.06760
C342        C  0.46020780  0.80007970  0.16319170    -0.08320
C343        C  0.62244699  0.77556885  0.18417177    -0.06760
C344        C  0.66582964  0.79877657  0.15652559    -0.08320
C345        C  0.24855433  0.92927849  0.70138498    -0.06760
C346        C  0.23472349  0.89013961  0.66785818    -0.08320
C347        C  0.24728708  0.03482900  0.69929793    -0.06760
C348        C  0.23066470  0.07434088  0.66602148    -0.08320
C349        C  0.34714970  0.09473528  0.80968705    -0.06760
C350        C  0.32530295  0.04366048  0.80459811    -0.08320
C351        C  0.34785795  0.87525724  0.82067824    -0.06760
C352        C  0.32526171  0.92547893  0.81084634    -0.08320
C353        C  0.17164382  0.65484690  0.18312393    -0.06760
C354        C  0.13852047  0.68441863  0.21335378    -0.08320
C355        C  0.87695169  0.69063095  0.07020721    -0.06760
C356        C  0.88702267  0.66388338  0.11730366    -0.08320
C357        C  0.94514675  0.66225634  0.20695825    -0.06760
C358        C  0.99687532  0.68081691  0.22069416    -0.08320
C359        C  0.90529935  0.36962296  0.80498145    -0.06760
C360        C  0.89808708  0.41646527  0.77838176    -0.08320
C361        C  0.18102666  0.66172831  0.80818668    -0.06760
C362        C  0.14869245  0.69362455  0.77754803    -0.08320
C363        C  0.09370481  0.38322356  0.10096466    -0.06760
C364        C  0.14914126  0.37264120  0.10743973    -0.08320
C365        C  0.08925925  0.58230751  0.09881946    -0.06760
C366        C  0.14355812  0.59283510  0.10938456    -0.08320
C367        C  0.82397141  0.66602553  0.20142852    -0.06760
C368        C  0.76910221  0.65882475  0.18514862    -0.08320
C369        C  0.78536314  0.29736408  0.80505348    -0.06760
C370        C  0.84103711  0.28684165  0.79734027    -0.08320
C371        C  0.09533669  0.58439864  0.88795414    -0.06760
C372        C  0.15013977  0.59082392  0.87481984    -0.08320
C373        C  0.09560059  0.38057205  0.88673937    -0.06760
C374        C  0.14697624  0.37141538  0.86692194    -0.08320
C375        C  0.82533209  0.28427300  0.20260384    -0.06760
C376        C  0.77031205  0.29266165  0.18707965    -0.08320
C377        C  0.88942869  0.67589640  0.87974365    -0.06760
C378        C  0.87661269  0.69898381  0.92741993    -0.08320
C379        C  0.95469157  0.68250796  0.79322457    -0.06760
C380        C  0.00582828  0.69939819  0.77586203    -0.08320
C381        C  0.88265393  0.55015933  0.76934070    -0.06760
C382        C  0.89292997  0.59590707  0.79558055    -0.08320
C383        C  0.83529136  0.68154475  0.78822517    -0.06760
C384        C  0.78051350  0.66770219  0.79786455    -0.08320
C385        C  0.26593495  0.53807309  0.78161141    -0.06760
C386        C  0.24273639  0.57443056  0.81315671    -0.08320
C387        C  0.25802061  0.43317308  0.77369950    -0.06760
C388        C  0.23422488  0.39304927  0.80152487    -0.08320
C389        C  0.87012130  0.52909157  0.21322840    -0.06760
C390        C  0.88117623  0.57884630  0.19530490    -0.08320
C391        C  0.87981181  0.37166261  0.19649873    -0.06760
C392        C  0.86611080  0.41907632  0.21605800    -0.08320
C393        C  0.14416353  0.19672695  0.69319341    -0.06760
C394        C  0.17576651  0.16484253  0.66411341    -0.08320
C395        C  0.95490492  0.18121279  0.66990407    -0.06760
C396        C  0.00279418  0.19892486  0.69303197    -0.08320
C397        C  0.95819451  0.28077014  0.79487400    -0.06760
C398        C  0.00497329  0.26244379  0.77201352    -0.08320
C399        C  0.14415206  0.27064824  0.76819625    -0.06760
C400        C  0.17479809  0.30359797  0.79783733    -0.08320
C401        C  0.76017093  0.16299578  0.09173992    -0.06760
C402        C  0.79825580  0.18996877  0.06158544    -0.08320
C403        C  0.81188829  0.18870168  0.92963180    -0.06760
C404        C  0.78709193  0.16767065  0.88576160    -0.08320
C405        C  0.87689465  0.26541717  0.07066158    -0.06760
C406        C  0.88693002  0.29061912  0.11742435    -0.08320
C407        C  0.88781400  0.26524815  0.93244080    -0.06760
C408        C  0.90176028  0.28870803  0.88496507    -0.08320
C409        C  0.26594407  0.68105266  0.06061438    -0.06760
C410        C  0.23524444  0.65158194  0.09480598    -0.08320
C411        C  0.24453240  0.64336895  0.89571425    -0.06760
C412        C  0.27078588  0.67261891  0.93258021    -0.08320
C413        C  0.33816004  0.76307953  0.06082608    -0.06760
C414        C  0.36661401  0.79291086  0.09650853    -0.08320
C415        C  0.33303626  0.75905514  0.92327759    -0.06760
C416        C  0.34937321  0.78320724  0.87722436    -0.08320
C417        C  0.27314312  0.42526709  0.18567307    -0.06760
C418        C  0.24631285  0.38578621  0.16134917    -0.08320
C419        C  0.23643923  0.57162262  0.16503766    -0.06760
C420        C  0.26495433  0.53069357  0.18557086    -0.08320
C421        C  0.24799076  0.14723541  0.58450163    -0.06760
C422        C  0.27817070  0.17699984  0.54957344    -0.08320
C423        C  0.25020429  0.14738824  0.38581769    -0.06760
C424        C  0.27752627  0.17848198  0.42107892    -0.08320
C425        C  0.61791719  0.17878175  0.17634388    -0.06760
C426        C  0.66274796  0.15513220  0.15252852    -0.08320
C427        C  0.49948535  0.18081658  0.17786460    -0.06760
C428        C  0.45409462  0.15780057  0.15397708    -0.08320
C429        C  0.14453016  0.27189828  0.20538633    -0.06760
C430        C  0.17862850  0.30251729  0.17527349    -0.08320
C431        C  0.95008145  0.16251592  0.26419836    -0.06760
C432        C  0.00314023  0.18101585  0.25614439    -0.08320
C433        C  0.94760923  0.29074426  0.20583518    -0.06760
C434        C  0.00094285  0.27352739  0.21661934    -0.08320
C435        C  0.14727230  0.18640855  0.26829157    -0.06760
C436        C  0.18463231  0.15647837  0.29633299    -0.08320
C437        C  0.35834667  0.92256293  0.18372744    -0.06760
C438        C  0.37869581  0.87828390  0.16198891    -0.08320
C439        C  0.27854192  0.03250763  0.28298367    -0.06760
C440        C  0.25515165  0.07352136  0.30753343    -0.08320
C441        C  0.37608812  0.07726647  0.15327859    -0.06760
C442        C  0.35767370  0.03267726  0.17856490    -0.08320
C443        C  0.27354044  0.92503363  0.28408075    -0.06760
C444        C  0.24747963  0.88397098  0.30880660    -0.08320
C445        C  0.26929848  0.29169080  0.91990583    -0.06760
C446        C  0.24176169  0.32066164  0.88259557    -0.08320
C447        C  0.33331063  0.19747342  0.05073887    -0.06760
C448        C  0.36042069  0.16620074  0.08759760    -0.08320
C449        C  0.26635588  0.28311501  0.04880645    -0.06760
C450        C  0.23901910  0.31255765  0.08453819    -0.08320
C451        C  0.33132187  0.20695324  0.90994462    -0.06760
C452        C  0.34707022  0.18642604  0.86248309    -0.08320
C453        C  0.69326264  0.67185239  0.69344193    -0.06760
C454        C  0.65001718  0.69343933  0.72434650    -0.08320
C455        C  0.77370510  0.58673470  0.66943775    -0.06760
C456        C  0.80919806  0.54556313  0.68784510    -0.08320
C457        C  0.78334336  0.67781033  0.61113012    -0.06760
C458        C  0.80934821  0.69528345  0.56489013    -0.08320
C459        C  0.45571458  0.29539529  0.66825988    -0.06760
C460        C  0.50383364  0.27064459  0.69217284    -0.08320
C461        C  0.33649539  0.42957959  0.67002479    -0.06760
C462        C  0.35975388  0.38052666  0.65790171    -0.08320
C463        C  0.35714924  0.28534428  0.60801574    -0.06760
C464        C  0.34112230  0.26279313  0.56040924    -0.08320
C465        C  0.75602250  0.42484912  0.29839412    -0.06760
C466        C  0.72746283  0.38055059  0.31634117    -0.08320
C467        C  0.79651946  0.26861627  0.39900264    -0.06760
C468        C  0.75895539  0.28912103  0.36271193    -0.08320
C469        C  0.66868066  0.29056964  0.28787134    -0.06760
C470        C  0.62269178  0.27005453  0.26231308    -0.08320
C471        C  0.51073217  0.68130216  0.28347880    -0.06760
C472        C  0.46533280  0.65654718  0.30760726    -0.08320
C473        C  0.37371244  0.67080005  0.37691912    -0.06760
C474        C  0.35318272  0.69971734  0.41882699    -0.08320
C475        C  0.35626275  0.54189650  0.27626426    -0.06760
C476        C  0.37202715  0.58969996  0.29577448    -0.08320
C477        C  0.74967910  0.65344103  0.39281243    -0.06760
C478        C  0.78436294  0.68099110  0.42730622    -0.08320
C479        C  0.63027689  0.68803665  0.27954766    -0.06760
C480        C  0.67629531  0.66465176  0.30371173    -0.08320
C481        C  0.75551937  0.58310768  0.31074669    -0.06760
C482        C  0.77335130  0.53542030  0.29505157    -0.08320
C483        C  0.38307179  0.38069405  0.30158262    -0.06760
C484        C  0.36435316  0.42818324  0.28185592    -0.08320
C485        C  0.34406668  0.26387817  0.41184886    -0.06760
C486        C  0.36851420  0.29029730  0.36904746    -0.08320
C487        C  0.45870780  0.29570240  0.29385388    -0.06760
C488        C  0.50282268  0.27246235  0.26765490    -0.08320
C489        C  0.85492198  0.39646204  0.69005583    -0.06760
C490        C  0.82840620  0.34972476  0.67461511    -0.08320
C491        C  0.66368506  0.26966296  0.71051263    -0.06760
C492        C  0.71350545  0.28854998  0.68284900    -0.08320
C493        C  0.78671543  0.30120017  0.58368401    -0.06760
C494        C  0.81143208  0.27894699  0.53833182    -0.08320
C495        C  0.66389207  0.64959775  0.55369376    -0.06760
C496        C  0.69193459  0.63728768  0.59951295    -0.08320
C497        C  0.38215782  0.32106964  0.77246139    -0.06760
C498        C  0.36409856  0.30261711  0.72410701    -0.08320
C499        C  0.63943359  0.29592782  0.43243201    -0.06760
C500        C  0.65843980  0.31511562  0.38493708    -0.08320
C501        C  0.40214968  0.55543092  0.42029928    -0.06760
C502        C  0.42585890  0.58266812  0.37995796    -0.08320
C503        C  0.66507267  0.58134941  0.36064002    -0.06760
C504        C  0.63199424  0.53861213  0.35569987    -0.08320
C505        C  0.44973905  0.35272873  0.37966492    -0.06760
C506        C  0.45561966  0.36264960  0.43103460    -0.08320
C507        C  0.73876807  0.37953750  0.64605831    -0.06760
C508        C  0.73154429  0.42330636  0.67417567    -0.08320
C509        C  0.49402820  0.70447249  0.74001601    -0.06760
C510        C  0.44673453  0.68589630  0.71251227    -0.08320
C511        C  0.36043756  0.71003953  0.56603681    -0.06760
C512        C  0.38462783  0.68732459  0.61140489    -0.08320
C513        C  0.38520405  0.59453777  0.67681106    -0.06760
C514        C  0.35728220  0.54636325  0.68548473    -0.08320
C515        C  0.48150673  0.64408793  0.63609858    -0.06760
C516        C  0.53639857  0.63140094  0.64140134    -0.08320
loop_ 
_geom_bond_atom_site_label_1 
_geom_bond_atom_site_label_2 
_geom_bond_distance 
_geom_bond_site_symmetry_2 
_ccdc_geom_bond_type 
C1          C510   1.513       .  S
C1          C512   1.521       .  S
C1          C513   1.568       .  S
C1          C515   1.441       .  S
N2            N3   1.328       .  A
N2            N8   1.306       .  A
N2          Mn31   2.242       .  S
N3           C10   1.351       .  A
N4            N6   1.304       .  A
N4            N5   1.326       .  A
N4          Mn20   2.183       .  S
N5           C11   1.343       .  A
N6            N7   1.319       .  A
N6          Mn31   2.162       .  S
N7           C11   1.328       .  A
N8            N9   1.326       .  A
N8          Mn20   2.251       .  S
N9           C10   1.343       .  A
C10         C497   1.472       .  S
C11         C506   1.401       .  S
N12          N18   1.304       .  A
N12          N13   1.299       .  A
N12         Mn42   2.196       .  S
N13          C21   1.338       .  A
N14          N15   1.321       .  A
N14          N16   1.307       .  A
N14         Mn20   2.048       .  S
N15          C22   1.339       .  A
N16          N17   1.320       .  A
N16         Mn42   2.236       .  S
N17          C22   1.317       .  A
N18          N19   1.319       .  A
N18         Mn20   2.188       .  S
N19          C21   1.353       .  A
Mn20        Cl44   2.568       .  S
C21         C501   1.409       .  S
C22         C516   1.386       .  S
N23          N24   1.331       .  A
N23          N29   1.302       .  A
N23         Mn31   2.231       .  S
N24          C32   1.363       .  A
N25          N27   1.323       .  A
N25          N26   1.302       .  A
N25         Mn43   2.091       .  S
N26          C33   1.338       .  A
N27          N28   1.311       .  A
N27         Mn31   2.172       .  S
N28          C33   1.336       .  A
N29          N30   1.297       .  A
N29         Mn43   2.110       .  S
N30          C32   1.320       .  A
Mn31        Cl44   2.649       .  S
C32         C499   1.423       .  S
C33         C508   1.405       .  S
N34          N35   1.321       .  A
N34          N40   1.311       .  A
N34         Mn42   2.178       .  S
N35          C45   1.363       .  A
N36          N37   1.316       .  A
N36          N38   1.321       .  A
N36         Mn43   2.103       .  S
N37          C46   1.341       .  A
N38          N39   1.316       .  A
N38         Mn42   2.243       .  S
N39          C46   1.338       .  A
N40          N41   1.301       .  A
N40         Mn43   2.193       .  S
N41          C45   1.334       .  A
Mn42        Cl44   2.544       .  S
Mn43        Cl44   2.537       .  S
C45         C495   1.408       .  S
C46         C504   1.429       .  S
C47         C490   1.543       .  S
C47         C492   1.613       .  S
C47         C493   1.572       .  S
C47         C507   1.430       .  S
C48         C483   1.511       .  S
C48         C486   1.517       .  S
C48         C487   1.516       .  S
C48         C505   1.430       .  S
C49         C477   1.534       .  S
C49         C480   1.496       .  S
C49         C481   1.483       .  S
C49         C503   1.458       .  S
C50         C472   1.513       .  S
C50         C473   1.538       .  S
C50         C476   1.508       .  S
C50         C502   1.441       .  S
C51         C466   1.526       .  S
C51         C468   1.481       .  S
C51         C469   1.485       .  S
C51         C500   1.470       .  S
C52         C459   1.579       .  S
C52         C462   1.571       .  S
C52         C463   1.528       .  S
C52         C498   1.495       .  S
C53         C453   1.555       .  S
C53         C455   1.569       .  S
C53         C457   1.498       .  S
C53         C496   1.446       .  S
C54          C55   1.382   1_556  D
C54         C445   1.440       .  S
C54         C451   1.465       .  S
C55         C447   1.463       .  S
C55         C449   1.458       .  S
C56          C57   1.363       .  D
C56         C439   1.459   1_565  S
C56         C443   1.461       .  S
C57         C437   1.473       .  S
C57         C442   1.475   1_565  S
C58          C59   1.367       .  D
C58         C429   1.434       .  S
C58         C435   1.444       .  S
C59         C432   1.429       .  S
C59         C434   1.440       .  S
C60          C61   1.373       .  D
C60         C470   1.471       .  S
C60         C488   1.493       .  S
C61         C425   1.479       .  S
C61         C427   1.465       .  S
C62          C63   1.407       .  D
C62         C422   1.452       .  S
C62         C464   1.495       .  S
C63         C424   1.470       .  S
C63         C485   1.484       .  S
C64          C65   1.355       .  D
C64         C475   1.496       .  S
C64         C484   1.490       .  S
C65         C417   1.449       .  S
C65         C420   1.437       .  S
C66          C67   1.371   1_556  D
C66         C412   1.451       .  S
C66         C415   1.447       .  S
C67         C409   1.438       .  S
C67         C413   1.462       .  S
C68          C69   1.382   1_556  D
C68         C403   1.467       .  S
C68         C407   1.452       .  S
C69         C402   1.452       .  S
C69         C405   1.468       .  S
C70          C71   1.357       .  D
C70         C393   1.434       .  S
C70         C399   1.441       .  S
C71         C396   1.434       .  S
C71         C398   1.424       .  S
C72          C73   1.374       .  D
C72         C465   1.504       .  S
C72         C482   1.472       .  S
C73         C389   1.477       .  S
C73         C392   1.467       .  S
C74          C75   1.374       .  D
C74         C461   1.554       .  S
C74         C514   1.545       .  S
C75         C385   1.462       .  S
C75         C387   1.453       .  S
C76         C377   1.524       .  S
C76         C379   1.463       .  S
C76         C382   1.519       .  S
C76         C383   1.474       .  S
N77          N78   1.320       .  A
N77          N83   1.315       .  A
N77        Mn106   2.215       .  S
N78          C85   1.353       .  A
N79          N81   1.294       .  A
N79          N80   1.326       .  A
N79         Mn95   2.190       .  S
N80          C86   1.346   1_655  A
N81          N82   1.319       .  A
N81        Mn106   2.147       .  S
N82          C86   1.335   1_655  A
N83          N84   1.321       .  A
N83         Mn95   2.227       .  S
N84          C85   1.354       .  A
C85         C384   1.447       .  S
C86         C371   1.426       .  S
N87          N93   1.297       .  A
N87          N88   1.320       .  A
N87        Mn117   2.170       .  S
N88          C96   1.339   1_655  A
N89          N90   1.324       .  A
N89          N91   1.316       .  A
N89         Mn95   2.240   1_554  S
N90          C97   1.357       .  A
N91          N92   1.321       .  A
N91        Mn117   2.220       .  S
N92          C97   1.351       .  A
N93          N94   1.318       .  A
N93         Mn95   2.140   1_554  S
N94          C96   1.335   1_655  A
Mn95       Cl119   2.489       .  S
C96         C365   1.410       .  S
C97         C368   1.454       .  S
N98          N99   1.318       .  A
N98         N104   1.297       .  A
N98        Mn106   2.156       .  S
N99         C107   1.332   1_655  A
N100        N102   1.315       .  A
N100        N101   1.319       .  A
N100       Mn118   2.213       .  S
N101        C108   1.352       .  A
N102        N103   1.319       .  A
N102       Mn106   2.206       .  S
N103        C108   1.352       .  A
N104        N105   1.326       .  A
N104       Mn118   2.175       .  S
N105        C107   1.344   1_655  A
Mn106      Cl119   2.475       .  S
C107        C373   1.415       .  S
C108        C369   1.435       .  S
N109        N110   1.322       .  A
N109        N115   1.314       .  A
N109       Mn117   2.228       .  S
N110        C120   1.354       .  A
N111        N112   1.319       .  A
N111        N113   1.296       .  A
N111       Mn118   2.151   1_554  S
N112        C121   1.338   1_655  A
N113        N114   1.323       .  A
N113       Mn117   2.180       .  S
N114        C121   1.343   1_655  A
N115        N116   1.323       .  A
N115       Mn118   2.233   1_554  S
N116        C120   1.355       .  A
Mn117      Cl119   2.474   1_554  S
Mn118      Cl119   2.494       .  S
C120        C376   1.455       .  S
C121        C363   1.425       .  S
C122        C375   1.482       .  S
C122        C391   1.493       .  S
C122        C406   1.504       .  S
C122        C433   1.467       .  S
C123        C374   1.446       .  S
C123        C388   1.474       .  S
C123        C400   1.462       .  S
C123        C446   1.461       .  S
C124        C361   1.458       .  S
C124        C372   1.455       .  S
C124        C386   1.484       .  S
C124        C411   1.472       .  S
C125        C359   1.488       .  S
C125        C370   1.473       .  S
C125        C397   1.447       .  S
C125        C408   1.487       .  S
C126        C356   1.498       .  S
C126        C357   1.461       .  S
C126        C367   1.484       .  S
C126        C390   1.498       .  S
C127        C128   1.448       .  D
C127        C360   1.453       .  S
C127        C489   1.508       .  S
C128        C381   1.483       .  S
C128        C456   1.530       .  S
C129        C353   1.458       .  S
C129        C366   1.440       .  S
C129        C410   1.459       .  S
C129        C419   1.453       .  S
C130        C364   1.454       .  S
C130        C418   1.470       .  S
C130        C430   1.459       .  S
C130        C450   1.480       .  S
C131        C132   1.385       .  D
C131        C350   1.541   1_565  S
C131        C352   1.535       .  S
C132        C345   1.469       .  S
C132        C347   1.456   1_565  S
C133        C134   1.380       .  D
C133        C341   1.476       .  S
C133        C343   1.473       .  S
C134        C471   1.489       .  S
C134        C479   1.479       .  S
C135        C136   1.476       .  D
C135        C337   1.548       .  S
C135        C460   1.540       .  S
C136        C340   1.543       .  S
C136        C491   1.581       .  S
C137        C333   1.589       .  S
C137        C335   1.448       .  S
C137        C339   1.584       .  S
C137        C404   1.492       .  S
N138        N139   1.300       .  A
N138        N144   1.310       .  A
N138       Mn167   2.085       .  S
N139        C146   1.335       .  A
N140        N142   1.297       .  A
N140        N141   1.321       .  A
N140       Mn156   2.200       .  S
N141        C147   1.344       .  A
N142        N143   1.323       .  A
N142       Mn167   2.129       .  S
N143        C147   1.348       .  A
N144        N145   1.298       .  A
N144       Mn156   2.208       .  S
N145        C146   1.321       .  A
C146        C325   1.415       .  S
C147        C331   1.432   1_556  S
N148        N154   1.304       .  A
N148        N149   1.320       .  A
N148       Mn178   2.201       .  S
N149        C157   1.345       .  A
N150        N151   1.303       .  A
N150        N152   1.299       .  A
N150       Mn156   2.102   1_545  S
N151        C158   1.333       .  A
N152        N153   1.312       .  A
N152       Mn178   2.168       .  S
N153        C158   1.343       .  A
N154        N155   1.319       .  A
N154       Mn156   2.148   1_545  S
N155        C157   1.345       .  A
Mn156      Cl180   2.312       .  S
C157        C319   1.423   1_556  S
C158        C336   1.440       .  S
N159        N160   1.316       .  A
N159        N165   1.298       .  A
N159       Mn167   2.153       .  S
N160        C168   1.335       .  A
N161        N163   1.296       .  A
N161        N162   1.321       .  A
N161       Mn179   2.258       .  S
N162        C169   1.359       .  A
N163        N164   1.318       .  A
N163       Mn167   2.139       .  S
N164        C169   1.344       .  A
N165        N166   1.324       .  A
N165       Mn179   2.231       .  S
N166        C168   1.348       .  A
Mn167      Cl180   2.525       .  S
C168        C324   1.421   1_556  S
C169        C329   1.450       .  S
N170        N171   1.322       .  A
N170        N176   1.307       .  A
N170       Mn178   2.217       .  S
N171        C181   1.352       .  A
N172        N173   1.318       .  A
N172        N174   1.299       .  A
N172       Mn179   2.197   1_545  S
N173        C182   1.340       .  A
N174        N175   1.318       .  A
N174       Mn178   2.151       .  S
N175        C182   1.340       .  A
N176        N177   1.321       .  A
N176       Mn179   2.242   1_545  S
N177        C181   1.353       .  A
Mn178      Cl180   2.485   1_545  S
Mn179      Cl180   2.368       .  S
C181        C328   1.453       .  S
C182        C321   1.415   1_556  S
C183        C315   1.473       .  S
C183        C317   1.483       .  S
C183        C332   1.463       .  S
C183        C344   1.494       .  S
C184        C313   1.577       .  S
C184        C330   1.486       .  S
C184        C351   1.565       .  S
C184        C416   1.476       .  S
C185        C327   1.483       .  S
C185        C338   1.591       .  S
C185        C349   1.571       .  S
C185        C452   1.497       .  S
C186        C307   1.542       .  S
C186        C310   1.468       .  S
C186        C311   1.558       .  S
C186        C326   1.409       .  S
C187        C323   1.451       .  S
C187        C342   1.502       .  S
C187        C414   1.488       .  S
C187        C438   1.491       .  S
C188        C189   1.477       .  D
C188        C312   1.517       .  S
C188        C454   1.521       .  S
C189        C314   1.521       .  S
C189        C509   1.485       .  S
C190        C322   1.445       .  S
C190        C428   1.488       .  S
C190        C441   1.494       .  S
C190        C448   1.490       .  S
C191        C305   1.486       .  S
C191        C320   1.453       .  S
C191        C401   1.474       .  S
C191        C426   1.499       .  S
C192        C193   1.369       .  D
C192        C303   1.432   1_455  S
C192        C358   1.436   1_455  S
C193        C302   1.447       .  S
C193        C354   1.434       .  S
C194        C195   1.372       .  D
C194        C306   1.466   1_565  S
C194        C318   1.463       .  S
C195        C298   1.492       .  S
C195        C300   1.490   1_565  S
C196        C197   1.411       .  D
C196        C296   1.479       .  S
C196        C494   1.542       .  S
C197        C293   1.498       .  S
C197        C467   1.455       .  S
C198        C199   1.413       .  D
C198        C291   1.476       .  S
C198        C511   1.489       .  S
C199        C290   1.460       .  S
C199        C474   1.502       .  S
C200        C288   1.482       .  S
C200        C294   1.539       .  S
C200        C299   1.517       .  S
C200        C431   1.457       .  S
N201        N202   1.324       .  A
N201        N207   1.304       .  A
N201       Mn230   2.244   1_545  S
N202        C209   1.358       .  A
N203        N205   1.296       .  A
N203        N204   1.316   1_655  A
N203       Mn219   2.136       .  S
N204        C210   1.335       .  A
N205        N206   1.323   1_655  A
N205       Mn230   2.212   1_545  S
N206        C210   1.345       .  A
N207        N208   1.321       .  A
N207       Mn219   2.196       .  S
N208        C209   1.351       .  A
C209        C287   1.453       .  S
C210        C275   1.421       .  S
N211        N217   1.300       .  A
N211        N212   1.317       .  A
N211       Mn241   2.130   1_545  S
N212        C220   1.339   1_655  A
N213        N214   1.312       .  A
N213        N215   1.310       .  A
N213       Mn219   2.121       .  S
N214        C221   1.334       .  A
N215        N216   1.307       .  A
N215       Mn241   2.209   1_545  S
N216        C221   1.356       .  A
N217        N218   1.322   1_655  A
N217       Mn219   2.180       .  S
N218        C220   1.343       .  A
Mn219      Cl243   2.461   1_545  S
C220        C274   1.415       .  S
C221        C280   1.434       .  S
N222        N223   1.320       .  A
N222        N228   1.296       .  A
N222       Mn230   2.191       .  S
N223        C231   1.341   1_655  A
N224        N226   1.310       .  A
N224        N225   1.324       .  A
N224       Mn242   2.238       .  S
N225        C232   1.358       .  A
N226        N227   1.322       .  A
N226       Mn230   2.231       .  S
N227        C232   1.354       .  A
N228        N229   1.318       .  A
N228       Mn242   2.143       .  S
N229        C231   1.339   1_655  A
Mn230      Cl243   2.448       .  S
C231        C283   1.421       .  S
C232        C285   1.458       .  S
N233        N234   1.308       .  A
N233        N239   1.311       .  A
N233       Mn241   2.192       .  S
N234        C244   1.350       .  A
N235        N236   1.323   1_655  A
N235        N237   1.303       .  A
N235       Mn242   2.200       .  S
N236        C245   1.342       .  A
N237        N238   1.322   1_655  A
N237       Mn241   2.165       .  S
N238        C245   1.341       .  A
N239        N240   1.320       .  A
N239       Mn242   2.168       .  S
N240        C244   1.344       .  A
Mn241      Cl243   2.472       .  S
Mn242      Cl243   2.478       .  S
C244        C277   1.447       .  S
C245        C281   1.426       .  S
C246        C272   1.527       .  S
C246        C286   1.486       .  S
C246        C297   1.520       .  S
C246        C304   1.461       .  S
C247        C284   1.449       .  S
C247        C289   1.483       .  S
C247        C301   1.474       .  S
C247        C444   1.481       .  S
C248        C270   1.459       .  S
C248        C282   1.456       .  S
C248        C292   1.498       .  S
C248        C346   1.490       .  S
C249        C267   1.551       .  S
C249        C279   1.460       .  S
C249        C295   1.504       .  S
C249        C395   1.459       .  S
C250        C261   1.449       .  S
C250        C264   1.510       .  S
C250        C265   1.505       .  S
C250        C278   1.477       .  S
C251        C252   1.410       .  D
C251        C266   1.468       .  S
C251        C458   1.476       .  S
C252        C271   1.492       .  S
C252        C478   1.504       .  S
C253        C276   1.450       .  S
C253        C423   1.491       .  S
C253        C436   1.470       .  S
C253        C440   1.478       .  S
C254        C273   1.446       .  S
C254        C348   1.476       .  S
C254        C394   1.457       .  S
C254        C421   1.472       .  S
C255        C256   1.358       .  D
C255        C269   1.437       .  S
C255        C362   1.434       .  S
C256        C262   1.425       .  S
C256        C380   1.435       .  S
C257        C258   1.441   1_545  D
C257        C268   1.522       .  S
C257        C334   1.549       .  S
C258        C263   1.473       .  S
C258        C308   1.504       .  S
C259        C260   1.383   1_556  D
C259        C309   1.459       .  S
C259        C378   1.486       .  S
C260        C316   1.457       .  S
C260        C355   1.459       .  S
C261        C262   1.199   1_655  T
C263        C264   1.234       .  T
C265        C266   1.232       .  T
C267        C268   1.255       .  T
C269        C270   1.203       .  T
C271        C272   1.242       .  T
C273        C274   1.195       .  T
C275        C276   1.199       .  T
C277        C278   1.214       .  T
C279        C280   1.223       .  T
C281        C282   1.201       .  T
C283        C284   1.198       .  T
C285        C286   1.224       .  T
C287        C288   1.222       .  T
C289        C290   1.216       .  T
C291        C292   1.226       .  T
C293        C294   1.247       .  T
C295        C296   1.235       .  T
C297        C298   1.239       .  T
C299        C300   1.238       .  T
C301        C302   1.213       .  T
C303        C304   1.211       .  T
C305        C306   1.218       .  T
C307        C308   1.261       .  T
C309        C310   1.212       .  T
C311        C312   1.262       .  T
C313        C314   1.271       .  T
C315        C316   1.213       .  T
C317        C318   1.216       .  T
C319        C320   1.199       .  T
C321        C322   1.195       .  T
C323        C324   1.199       .  T
C325        C326   1.201       .  T
C327        C328   1.222       .  T
C329        C330   1.219       .  T
C331        C332   1.205       .  T
C333        C334   1.276       .  T
C335        C336   1.207       .  T
C337        C338   1.276       .  T
C339        C340   1.271       .  T
C341        C342   1.227       .  T
C343        C344   1.223       .  T
C345        C346   1.222       .  T
C347        C348   1.213       .  T
C349        C350   1.268       .  T
C351        C352   1.265       .  T
C353        C354   1.203       .  T
C355        C356   1.228       .  T
C357        C358   1.210       .  T
C359        C360   1.229       .  T
C361        C362   1.203       .  T
C363        C364   1.201       .  T
C365        C366   1.192       .  T
C367        C368   1.222       .  T
C369        C370   1.213       .  T
C371        C372   1.202       .  T
C373        C374   1.195       .  T
C375        C376   1.223       .  T
C377        C378   1.241       .  T
C379        C380   1.208   1_655  T
C381        C382   1.238       .  T
C383        C384   1.216       .  T
C385        C386   1.217       .  T
C387        C388   1.211       .  T
C389        C390   1.226       .  T
C391        C392   1.224       .  T
C393        C394   1.202       .  T
C395        C396   1.206   1_655  T
C397        C398   1.198   1_655  T
C399        C400   1.205       .  T
C401        C402   1.213       .  T
C403        C404   1.222       .  T
C405        C406   1.230       .  T
C407        C408   1.221       .  T
C409        C410   1.203       .  T
C411        C412   1.210       .  T
C413        C414   1.221       .  T
C415        C416   1.214       .  T
C417        C418   1.209       .  T
C419        C420   1.200       .  T
C421        C422   1.211       .  T
C423        C424   1.221       .  T
C425        C426   1.226       .  T
C427        C428   1.219       .  T
C429        C430   1.204       .  T
C431        C432   1.208   1_655  T
C433        C434   1.214   1_655  T
C435        C436   1.210       .  T
C437        C438   1.222       .  T
C439        C440   1.214       .  T
C441        C442   1.223       .  T
C443        C444   1.215       .  T
C445        C446   1.204       .  T
C447        C448   1.223       .  T
C449        C450   1.214       .  T
C451        C452   1.227       .  T
C453        C454   1.261       .  T
C455        C456   1.268       .  T
C457        C458   1.236       .  T
C459        C460   1.273       .  T
C461        C462   1.270       .  T
C463        C464   1.245       .  T
C465        C466   1.242       .  T
C467        C468   1.219       .  T
C469        C470   1.222       .  T
C471        C472   1.234       .  T
C473        C474   1.249       .  T
C475        C476   1.238       .  T
C477        C478   1.245       .  T
C479        C480   1.227       .  T
C481        C482   1.223       .  T
C483        C484   1.234       .  T
C485        C486   1.239       .  T
C487        C488   1.235       .  T
C489        C490   1.266       .  T
C491        C492   1.292       .  T
C493        C494   1.269       .  T
C495        C496   1.211       .  T
C497        C498   1.234       .  T
C499        C500   1.215       .  T
C501        C502   1.200       .  T
C503        C504   1.210       .  T
C505        C506   1.188       .  T
C507        C508   1.214       .  T
C509        C510   1.248       .  T
C511        C512   1.241       .  T
C513        C514   1.265       .  T
C515        C516   1.198       .  T
