geometry optimzed in LAMMPS
_audit_creation_date              2020-11-30 
_audit_creation_method            'lammps2cif' 
_symmetry_space_group_name_H-M    'P1' 
_symmetry_Int_Tables_number       1 
_symmetry_cell_setting            triclinic 
loop_ 
_symmetry_equiv_pos_as_xyz 
  x,y,z 
_cell_length_a                    23.18357365107152 
_cell_length_b                    23.373527988213787 
_cell_length_c                    23.31930430981099 
_cell_angle_alpha                 90.29351781237932 
_cell_angle_beta                  90.06546696447379 
_cell_angle_gamma                 83.01597225884552 
loop_ 
_atom_site_label 
_atom_site_type_symbol 
_atom_site_fract_x 
_atom_site_fract_y 
_atom_site_fract_z 
_atom_site_charge 
C1          C  0.88018364  0.90442928  0.59164262    -0.03410
C2          C  0.47105229  0.50375830  0.59155383    -0.03410
C3          C  0.86729493  0.50967945  0.98675418    -0.03410
C4          C  0.48598471  0.90074048  0.98862185    -0.03410
C5          C  0.97187503  0.00336330  0.47892516    -0.03410
C6          C  0.98663182  0.39618575  0.08024658    -0.03410
C7          C  0.36685461  0.01616554  0.08119763    -0.03410
C8          C  0.38396977  0.40449240  0.47529408    -0.03410
Zr9        Zr  0.86709927  0.89145536  0.96766880     2.17510
O10         O  0.79211499  0.86856438  0.90061717    -0.52250
O11         O  0.88211930  0.78637680  0.97629137    -0.75460
O12         O  0.89853961  0.88749394  0.86723988    -0.82240
O13         O  0.74804514  0.94060773  0.08300172    -0.83990
O14         O  0.98449990  0.92340241  0.85607539    -0.79610
O15         O  0.76541134  0.90119091  0.99452102    -0.91250
O16         O  0.94040165  0.76190281  0.05276559    -0.77210
O17         O  0.96840311  0.86574989  0.98117478    -0.86700
O18         O  0.87792418  0.87188630  0.06754326    -0.86390
O19         O  0.90936089  0.97549830  0.93822130    -0.73150
O20         O  0.82862010  0.97749914  0.01809149    -0.85280
Zr21       Zr  0.98912981  0.01574520  0.10183813     2.26420
Zr22       Zr  0.01188035  0.94939040  0.95281150     2.06270
Zr23       Zr  0.84263992  0.95885169  0.11812986     2.10050
Zr24       Zr  0.97959478  0.84770235  0.08139583     1.78760
O25         O  0.77534958  0.03906071  0.15419682    -0.94080
O26         O  0.06208444  0.78370959  0.04425176    -0.41890
O27         O  0.94451821  0.93384114  0.13112866    -0.78530
O28         O  0.02692219  0.92802996  0.05289679    -0.97210
O29         O  0.97511734  0.03615529  0.00279210    -0.90520
O30         O  0.88721206  0.04189991  0.09069893    -0.93360
C31         C  0.90776453  0.74958365  0.01161405     1.00390
C32         C  0.73136274  0.91900094  0.03602944     1.13320
C33         C  0.94011145  0.90205768  0.83600083     1.04100
O34         O  0.08487520  0.87247322  0.91992077    -0.95510
O35         O  0.10591685  0.97516070  0.98286181    -0.91260
O36         O  0.08973594  0.01306833  0.07208147    -0.84400
C37         C  0.12295186  0.99760726  0.02931641     1.10740
O38         O  0.79887757  0.07168403  0.91587320    -0.97490
Zr39       Zr  0.87289080  0.05980272  0.99072616     1.88940
O40         O  0.97678869  0.12048619  0.08910481    -0.74140
O41         O  0.04176167  0.02205688  0.88844944    -0.53400
O42         O  0.90852569  0.11033773  0.90932363    -0.98080
O43         O  0.78310489  0.11628934  0.02256595    -0.55290
O44         O  0.90228299  0.14706793  0.02777000    -0.74650
C45         C  0.94321290  0.15818105  0.06088674     0.97690
O46         O  0.05033147  0.04672836  0.17845835    -0.63470
O47         O  0.80696748  0.89017401  0.18369874    -0.58280
O48         O  0.96732092  0.00144682  0.20313152    -0.94960
O49         O  0.87748069  0.97375715  0.21488049    -0.93380
O50         O  0.95054279  0.80560911  0.17058956    -0.93740
O51         O  0.05865584  0.83229180  0.15056449    -0.92520
C52         C  0.92593169  0.98685562  0.23467401     1.16530
H53         H  0.85620379  0.84109166  0.07891161     0.32480
H54         H  0.06723461  0.91585994  0.06148493     0.43330
H55         H  0.87366558  0.07500173  0.11413838     0.36860
H56         H  0.90016755  0.98608606  0.89906865     0.33340
H57         H  0.06085854  0.74695220  0.06488958     0.25120
H58         H  0.06820656  0.00012266  0.86063195     0.31060
H59         H  0.89135933  0.15100611  0.91392131     0.36970
H60         H  0.96539740  0.76415484  0.16755391     0.31430
H61         H  0.77329301  0.91215660  0.20315771     0.30310
H62         H  0.75181861  0.02173108  0.18331330     0.31990
H63         H  0.78576978  0.15587171  0.00873713     0.30960
H64         H  0.05902550  0.87018293  0.16966493     0.34950
H65         H  0.08248218  0.01504330  0.18303277     0.27690
H66         H  0.80913731  0.83402914  0.87899242     0.31920
H67         H  0.79288031  0.11341834  0.90721588     0.34770
H68         H  0.78973224  0.86204207  0.15912916     0.27380
H69         H  0.06884223  0.07918514  0.16251848     0.40250
H70         H  0.06279300  0.84026649  0.90940990     0.30310
H71         H  0.05133675  0.77506063  0.00430993     0.37920
H72         H  0.78670552  0.11921842  0.06473232     0.29780
H73         H  0.00651675  0.03548951  0.86593165     0.29840
H74         H  0.78770243  0.90020964  0.87225567     0.30100
Zr75       Zr  0.85616815  0.52567404  0.60101595     2.17510
O76         O  0.78928067  0.60531824  0.63942736    -0.52250
O77         O  0.86285170  0.51129915  0.70561745    -0.75460
O78         O  0.75461774  0.50432803  0.59769641    -0.82240
O79         O  0.96922066  0.62879824  0.55501411    -0.83990
O80         O  0.75012737  0.41461853  0.56135167    -0.79610
O81         O  0.87704569  0.62589136  0.58705706    -0.91250
O82         O  0.93027393  0.43509661  0.72413791    -0.77210
O83         O  0.87430872  0.42480097  0.61842489    -0.86700
O84         O  0.95755875  0.50525541  0.62186834    -0.86390
O85         O  0.82905351  0.48050251  0.51332169    -0.73150
O86         O  0.90726193  0.55160627  0.51759471    -0.85280
Zr87       Zr  0.99820362  0.38077624  0.46764191     2.26420
Zr88       Zr  0.84782110  0.37905923  0.53191641     2.06270
Zr89       Zr  0.00826094  0.52936875  0.53749916     2.10050
Zr90       Zr  0.97591650  0.40391138  0.63644741     1.78760
O91         O  0.04703300  0.58985227  0.46589548    -0.94080
O92         O  0.95245618  0.31740640  0.68467812    -0.41890
O93         O  0.02623370  0.42793154  0.55313617    -0.78530
O94         O  0.94928266  0.35484585  0.55291575    -0.97210
O95         O  0.89748417  0.40375980  0.44709310    -0.90520
O96         O  0.98323860  0.48233640  0.45095883    -0.93360
C97         C  0.89138534  0.47519820  0.74001213     1.00390
C98         C  0.91937164  0.65346124  0.57109144     1.13320
C99         C  0.72628996  0.46256589  0.58214739     1.04100
O100        O  0.81483172  0.31334078  0.60205823    -0.95510
O101        O  0.87913082  0.28084496  0.50399373    -0.91260
O102        O  0.96891490  0.28202963  0.46512097    -0.84400
C103        C  0.92571465  0.25568549  0.48120599     1.10740
O104        O  0.80127122  0.58151281  0.42077661    -0.97490
Zr105      Zr  0.88221041  0.50526937  0.43162521     1.88940
O106        O  0.98950453  0.39340581  0.36334440    -0.74140
O107        O  0.78409677  0.35362721  0.45523542    -0.53400
O108        O  0.80497554  0.47038033  0.37520217    -0.98080
O109        O  0.90963352  0.59201158  0.38669628    -0.55290
O110        O  0.92735113  0.47344409  0.34307133    -0.74650
C111        C  0.96319730  0.43018426  0.32822445     0.97690
O112        O  0.07680255  0.30805561  0.43703021    -0.63470
O113        O  0.06979778  0.56024069  0.61374305    -0.58280
O114        O  0.10023139  0.39889768  0.47735610    -0.94960
O115        O  0.10635420  0.48699367  0.51725340    -0.93380
O116        O  0.05477253  0.43953155  0.68972940    -0.93740
O117        O  0.05839066  0.32997696  0.64908094    -0.92520
C118        C  0.12939111  0.43893180  0.49594036     1.16530
H119        H  0.96807415  0.52673815  0.65497491     0.32480
H120        H  0.95897299  0.31487961  0.56296736     0.43330
H121        H  0.00709299  0.49282094  0.41969937     0.36860
H122        H  0.78934803  0.49203661  0.50202764     0.33340
H123        H  0.96675536  0.32072142  0.72445107     0.25120
H124        H  0.75825826  0.32841686  0.47370668     0.31060
H125        H  0.81102803  0.48341248  0.33556548     0.36970
H126        H  0.05004238  0.42648333  0.72959534     0.31430
H127        H  0.09749104  0.58250867  0.59395993     0.30310
H128        H  0.07581103  0.60999560  0.48690946     0.31990
H129        H  0.89982050  0.58835141  0.34560322     0.30960
H130        H  0.06833298  0.31599495  0.60974290     0.34950
H131        H  0.08119184  0.27906575  0.46806457     0.27690
H132        H  0.76755870  0.58847479  0.67035185     0.31920
H133        H  0.79443099  0.58545006  0.37897986     0.34770
H134        H  0.04458126  0.58947727  0.63608067     0.27380
H135        H  0.06134973  0.28804919  0.40389444     0.40250
H136        H  0.80749847  0.33663922  0.63746504     0.30310
H137        H  0.90959336  0.32285093  0.68827178     0.37920
H138        H  0.95262793  0.58730789  0.38761775     0.29780
H139        H  0.75851280  0.38970117  0.44691522     0.29840
H140        H  0.76021669  0.61527316  0.60878226     0.30100
Zr141      Zr  0.48950541  0.51733302  0.96766436     2.17510
O142        O  0.56345378  0.53995607  0.89970122    -0.52250
O143        O  0.47728166  0.62216983  0.97887448    -0.75460
O144        O  0.45876095  0.51498255  0.86707980    -0.82240
O145        O  0.60725690  0.47034255  0.08248309    -0.83990
O146        O  0.37081769  0.48237346  0.85647584    -0.79610
O147        O  0.59176591  0.51136892  0.99459299    -0.91250
O148        O  0.40163955  0.64989502  0.03852925    -0.77210
O149        O  0.38768222  0.54343942  0.97977294    -0.86700
O150        O  0.47684285  0.53944947  0.06694887    -0.86390
O151        O  0.44610345  0.43275015  0.94012963    -0.73150
O152        O  0.52795247  0.43213835  0.01863118    -0.85280
Zr153      Zr  0.36609770  0.39656198  0.10338476     2.26420
Zr154      Zr  0.34324817  0.45929527  0.95353201     2.06270
Zr155      Zr  0.51277443  0.45357239  0.11798363     2.10050
Zr156      Zr  0.37490583  0.56370071  0.07955581     1.78760
O157        O  0.58043540  0.37428251  0.15464212    -0.94080
O158        O  0.28415733  0.61878391  0.04902465    -0.41890
O159        O  0.41087427  0.47919211  0.13085868    -0.78530
O160        O  0.32776277  0.48279016  0.05311900    -0.97210
O161        O  0.38018336  0.37368625  0.00462290    -0.90520
O162        O  0.46794941  0.37005070  0.09237539    -0.93360
C163        C  0.44282087  0.66048244  0.00567969     1.00390
C164        C  0.62465706  0.49292768  0.03667012     1.13320
C165        C  0.41715455  0.49948028  0.83614731     1.04100
O166        O  0.27055703  0.53570164  0.91961877    -0.95510
O167        O  0.24887914  0.43469236  0.98477324    -0.91260
O168        O  0.26516612  0.39910113  0.07451832    -0.84400
C169        C  0.23170834  0.41381312  0.03180293     1.10740
O170        O  0.55748727  0.33620471  0.91907780    -0.97490
Zr171      Zr  0.48252524  0.34961395  0.99289766     1.88940
O172        O  0.37912416  0.29153026  0.09320806    -0.74140
O173        O  0.31300947  0.38534100  0.89012683    -0.53400
O174        O  0.44785557  0.29860206  0.91073103    -0.98080
O175        O  0.57089412  0.29208483  0.02642884    -0.55290
O176        O  0.45164097  0.26357009  0.02989162    -0.74650
C177        C  0.41179156  0.25332005  0.06445933     0.97690
O178        O  0.30587009  0.36631904  0.18072864    -0.63470
O179        O  0.54821096  0.52390858  0.18258134    -0.58280
O180        O  0.38830369  0.41464453  0.20399467    -0.94960
O181        O  0.47996066  0.43840901  0.21457568    -0.93380
O182        O  0.41089580  0.61636874  0.15976595    -0.93740
O183        O  0.30437976  0.57927752  0.15707631    -0.92520
C184        C  0.43101518  0.42775258  0.23478567     1.16530
H185        H  0.49790078  0.57092556  0.07812887     0.32480
H186        H  0.28756411  0.49547697  0.06175793     0.43330
H187        H  0.48151007  0.33760663  0.11636743     0.36860
H188        H  0.45540724  0.42013027  0.90147779     0.33340
H189        H  0.28517007  0.65775010  0.06558578     0.25120
H190        H  0.28667859  0.40673901  0.86201877     0.31060
H191        H  0.46402207  0.25776458  0.91594283     0.36970
H192        H  0.39170131  0.65635874  0.15564962     0.31430
H193        H  0.58167544  0.50235242  0.20260411     0.30310
H194        H  0.60266879  0.39190811  0.18486765     0.31990
H195        H  0.56834670  0.25271902  0.01152514     0.30960
H196        H  0.29947169  0.54005882  0.17056394     0.34950
H197        H  0.27367717  0.39796592  0.18551449     0.27690
H198        H  0.54484558  0.57169869  0.87551943     0.31920
H199        H  0.56346412  0.29432452  0.91072009     0.34770
H200        H  0.56576039  0.55122629  0.15760937     0.27380
H201        H  0.28729984  0.33360018  0.16507784     0.40250
H202        H  0.29293778  0.56688508  0.90708239     0.30310
H203        H  0.28878143  0.62405678  0.00725513     0.37920
H204        H  0.56600981  0.28871135  0.06837481     0.29780
H205        H  0.34821569  0.37117470  0.86780561     0.29840
H206        H  0.57054401  0.50614201  0.87377629     0.30100
Zr207      Zr  0.50050503  0.88166058  0.59934126     2.17510
O208        O  0.56983277  0.80256826  0.63427750    -0.52250
O209        O  0.49140390  0.89275895  0.70442044    -0.75460
O210        O  0.60160197  0.90673706  0.59811084    -0.82240
O211        O  0.38563108  0.77982831  0.55931598    -0.83990
O212        O  0.60266288  0.99748296  0.56324523    -0.79610
O213        O  0.48073422  0.78092601  0.58350883    -0.91250
O214        O  0.41423348  0.95888736  0.72619519    -0.77210
O215        O  0.47962546  0.98196012  0.62019987    -0.86700
O216        O  0.39883103  0.89991303  0.62001876    -0.86390
O217        O  0.52585611  0.92981288  0.51335990    -0.73150
O218        O  0.44942047  0.85618132  0.51502407    -0.85280
Zr219      Zr  0.35385945  0.02694184  0.47022935     2.26420
Zr220      Zr  0.50417590  0.03059715  0.53518808     2.06270
Zr221      Zr  0.34812514  0.87704901  0.53506767     2.10050
Zr222      Zr  0.37781568  0.00043874  0.63858610     1.78760
O223        O  0.31684273  0.81279167  0.46189853    -0.94080
O224        O  0.40853284  0.07987339  0.69436637    -0.41890
O225        O  0.32743945  0.97763768  0.55443806    -0.78530
O226        O  0.40253514  0.05207565  0.55649608    -0.97210
O227        O  0.45495352  0.00656571  0.44957077    -0.90520
O228        O  0.37178292  0.92601832  0.45009611    -0.93360
C229        C  0.45684111  0.92200680  0.74005931     1.00390
C230        C  0.43607362  0.75466412  0.57206462     1.13320
C231        C  0.62787548  0.95017859  0.58353222     1.04100
O232        O  0.53689390  0.09567387  0.60685648    -0.95510
O233        O  0.46973537  0.12892353  0.51142466    -0.91260
O234        O  0.38084482  0.12655455  0.47032095    -0.84400
C235        C  0.42317480  0.15327933  0.48815806     1.10740
O236        O  0.55494514  0.83035743  0.41874157    -0.97490
Zr237      Zr  0.47309873  0.90552881  0.43081288     1.88940
O238        O  0.36076048  0.01465612  0.36536092    -0.74140
O239        O  0.56572615  0.05901841  0.45841699    -0.53400
O240        O  0.54987509  0.94256149  0.37602903    -0.98080
O241        O  0.44702797  0.81968990  0.38212209    -0.55290
O242        O  0.42785339  0.93886482  0.34297984    -0.74650
C243        C  0.38914791  0.98003537  0.32920175     0.97690
O244        O  0.27475568  0.09776422  0.43755581    -0.63470
O245        O  0.28224774  0.84829366  0.60811286    -0.58280
O246        O  0.25251903  0.00767835  0.48547129    -0.94960
O247        O  0.24969882  0.91418803  0.51073958    -0.93380
O248        O  0.29280952  0.96845982  0.68395596    -0.93740
O249        O  0.30061026  0.07931098  0.65437325    -0.92520
C250        C  0.22495691  0.96439053  0.49765664     1.16530
H251        H  0.38850066  0.87708102  0.65196355     0.32480
H252        H  0.39181782  0.09164412  0.56786834     0.43330
H253        H  0.34818216  0.91537426  0.41854598     0.36860
H254        H  0.56578586  0.91959775  0.50206564     0.33340
H255        H  0.39057097  0.07687764  0.73257532     0.25120
H256        H  0.59041239  0.08547080  0.47700900     0.31060
H257        H  0.54436434  0.92982272  0.33604702     0.36970
H258        H  0.29557772  0.97961558  0.72479803     0.31430
H259        H  0.25906985  0.82137420  0.58813215     0.30310
H260        H  0.28571657  0.79401489  0.48045787     0.31990
H261        H  0.45881759  0.82376367  0.34168641     0.30960
H262        H  0.28382631  0.08772784  0.61582504     0.34950
H263        H  0.26842659  0.12667106  0.46883775     0.27690
H264        H  0.59092497  0.81902124  0.66612488     0.31920
H265        H  0.56244310  0.82751222  0.37696787     0.34770
H266        H  0.30691879  0.82364553  0.63516552     0.27380
H267        H  0.29088615  0.11830883  0.40540320     0.40250
H268        H  0.54487635  0.07185706  0.64161564     0.30310
H269        H  0.45059028  0.06893007  0.70107081     0.37920
H270        H  0.40404087  0.82477127  0.38095669     0.29780
H271        H  0.59270537  0.02392583  0.44958281     0.29840
H272        H  0.59901355  0.79473875  0.60334481     0.30100
C273        C  0.28893470  0.45452297  0.52250188    -0.14270
C274        C  0.31733145  0.41193159  0.48573695     0.07880
C275        C  0.28196706  0.37772118  0.45398431    -0.14270
C276        C  0.22162038  0.38573741  0.45823681    -0.14270
C277        C  0.19379579  0.42897121  0.49359971     0.07880
C278        C  0.22808597  0.46307172  0.52604818    -0.14270
H279        H  0.31312318  0.48275237  0.54723961     0.11870
H280        H  0.30055435  0.34576886  0.42361724     0.11870
H281        H  0.19667558  0.35901251  0.43231078     0.11870
H282        H  0.20785419  0.49676790  0.55406943     0.11870
C283        C  0.35483868  0.45011929  0.37685522    -0.14270
C284        C  0.39840602  0.42692490  0.41550101     0.07880
C285        C  0.45606437  0.41661845  0.39485479    -0.14270
C286        C  0.46757691  0.41906841  0.33605852    -0.14270
C287        C  0.42183797  0.43290622  0.29717850     0.07880
C288        C  0.36615922  0.45145857  0.31831227    -0.14270
H289        H  0.31081468  0.46384120  0.39056056     0.11870
H290        H  0.49118348  0.40095346  0.42354651     0.11870
H291        H  0.51141671  0.40652933  0.32079034     0.11870
H292        H  0.33081161  0.46557326  0.28927301     0.11870
C293        C  0.40742443  0.30365021  0.42858648    -0.14270
C294        C  0.40444093  0.33883949  0.47875795     0.07880
C295        C  0.40945204  0.31057466  0.53210924    -0.14270
C296        C  0.41706425  0.25015403  0.53498740    -0.14270
C297        C  0.41726860  0.21654728  0.48480267     0.07880
C298        C  0.41290251  0.24369136  0.43173778    -0.14270
H299        H  0.40121590  0.32201553  0.38626986     0.11870
H300        H  0.40576964  0.33521946  0.57165078     0.11870
H301        H  0.42061675  0.22956088  0.57656665     0.11870
H302        H  0.41320979  0.21845848  0.39260549     0.11870
C303        C  0.34470160  0.11829108  0.03807961    -0.14270
C304        C  0.38273325  0.07669186  0.06772130     0.07880
C305        C  0.43436500  0.09389674  0.09074424    -0.14270
C306        C  0.44330863  0.15187350  0.09123558    -0.14270
C307        C  0.40132003  0.19334663  0.06798210     0.07880
C308        C  0.35319453  0.17617212  0.03962616    -0.14270
H309        H  0.30717632  0.10702725  0.01505542     0.11870
H310        H  0.46584502  0.06284916  0.11174932     0.11870
H311        H  0.48237428  0.16451843  0.11056420     0.11870
H312        H  0.32255209  0.20758474  0.01797897     0.11870
C313        C  0.35800960  0.05168819  0.18627316    -0.14270
C314        C  0.37187276  0.00569673  0.14669672     0.07880
C315        C  0.38681864  0.95008451  0.16928179    -0.14270
C316        C  0.39107571  0.94162600  0.22859848    -0.14270
C317        C  0.37850854  0.98808928  0.26711108     0.07880
C318        C  0.36070924  0.04288413  0.24530509    -0.14270
H319        H  0.34562603  0.09536130  0.17186201     0.11870
H320        H  0.39590961  0.91307851  0.14120094     0.11870
H321        H  0.40448574  0.89856183  0.24441708     0.11870
H322        H  0.35109120  0.07950575  0.27385299     0.11870
C323        C  0.28772492  0.97168654  0.02147667    -0.14270
C324        C  0.30336815  0.01018543  0.06417787     0.07880
C325        C  0.25805397  0.04614584  0.09139155    -0.14270
C326        C  0.20033144  0.04342527  0.07778793    -0.14270
C327        C  0.18497305  0.00414421  0.03680832     0.07880
C328        C  0.22910577  0.96870539  0.00801894    -0.14270
H329        H  0.32023188  0.94386696  0.99820339     0.11870
H330        H  0.26684547  0.07818185  0.12248623     0.11870
H331        H  0.16743804  0.07206518  0.10011756     0.11870
H332        H  0.21831095  0.93772064  0.97628533     0.11870
C333        C  0.97084260  0.46145667  0.16940257    -0.14270
C334        C  0.97858052  0.40555230  0.14560276     0.07880
C335        C  0.98566313  0.35829996  0.18408841    -0.14270
C336        C  0.98314896  0.36650290  0.24320049    -0.14270
C337        C  0.97272963  0.42201117  0.26612956     0.07880
C338        C  0.96675418  0.46952041  0.22883274    -0.14270
H339        H  0.96759644  0.49898122  0.14201821     0.11870
H340        H  0.99486901  0.31434313  0.16894515     0.11870
H341        H  0.98793304  0.32919364  0.27096205     0.11870
H342        H  0.95911319  0.51303598  0.24572957     0.11870
C343        C  0.09508425  0.37284342  0.09826067    -0.14270
C344        C  0.05028357  0.40393703  0.06602040     0.07880
C345        C  0.06664611  0.43789753  0.02010135    -0.14270
C346        C  0.12556807  0.44006687  0.00730469    -0.14270
C347        C  0.16930302  0.40871090  0.04020286     0.07880
C348        C  0.15309595  0.37500871  0.08551534    -0.14270
H349        H  0.08554606  0.34478345  0.13267449     0.11870
H350        H  0.03440881  0.46224940  0.99340788     0.11870
H351        H  0.13685691  0.46696337  0.97238256     0.11870
H352        H  0.18545983  0.34988327  0.11159384     0.11870
C353        C  0.91785844  0.31922283  0.07880202    -0.14270
C354        C  0.97278427  0.33525742  0.06420056     0.07880
C355        C  0.01526183  0.29191763  0.04262302    -0.14270
C356        C  0.00626030  0.23410241  0.04426494    -0.14270
C357        C  0.95346339  0.21851595  0.06378233     0.07880
C358        C  0.90832419  0.26140677  0.07844017    -0.14270
H359        H  0.88359216  0.35123858  0.09418830     0.11870
H360        H  0.05658817  0.30155104  0.02643737     0.11870
H361        H  0.04025508  0.20148150  0.02939112     0.11870
H362        H  0.86629986  0.24997099  0.09117462     0.11870
C363        C  0.97853915  0.10293221  0.43661241    -0.14270
C364        C  0.95269548  0.06935171  0.47775581     0.07880
C365        C  0.91304786  0.09866510  0.51672646    -0.14270
C366        C  0.90239133  0.15921426  0.51619015    -0.14270
C367        C  0.93133828  0.19187508  0.47712273     0.07880
C368        C  0.96869399  0.16287631  0.43684229    -0.14270
H369        H  0.00961319  0.08281278  0.40591980     0.11910
H370        H  0.89168180  0.07538072  0.54875904     0.11870
H371        H  0.87325166  0.18061917  0.54802072     0.11870
H372        H  0.99138417  0.18661019  0.40611704     0.11870
C373        C  0.06706625  0.93549173  0.49069235    -0.14270
C374        C  0.03723576  0.99165322  0.49544498     0.07880
C375        C  0.07048328  0.03640018  0.51106574    -0.14270
C376        C  0.13107196  0.02757498  0.51089723    -0.14270
C377        C  0.16056532  0.97302026  0.49906320     0.07880
C378        C  0.12799294  0.92640296  0.49185196    -0.14270
H379        H  0.04331834  0.89937548  0.48144250     0.11870
H380        H  0.05047107  0.07933954  0.52150530     0.11870
H381        H  0.15491081  0.06363545  0.52017454     0.11870
H382        H  0.14961575  0.88320720  0.48484669     0.11870
C383        C  0.00571122  0.97414672  0.37609912    -0.14270
C384        C  0.96040497  0.98313546  0.41703798     0.07880
C385        C  0.90268912  0.98724017  0.39633811    -0.14270
C386        C  0.89095705  0.98657068  0.33725681    -0.14270
C387        C  0.93662212  0.98242142  0.29730796     0.07880
C388        C  0.99390586  0.97409967  0.31755874    -0.14270
H389        H  0.05085465  0.97275699  0.38792885     0.11870
H390        H  0.86653533  0.99509753  0.42586591     0.11870
H391        H  0.84620898  0.99226937  0.32286395     0.11870
H392        H  0.03014406  0.96953228  0.28791417     0.11870
C393        C  0.44447895  0.94179818  0.02234005    -0.14190
C394        C  0.40967385  0.97473601  0.04913236    -0.15750
C395        C  0.40653181  0.76489835  0.99970190    -0.14270
C396        C  0.45306805  0.72083856  0.00221576     0.07880
C397        C  0.50887119  0.73503141  0.01188783    -0.14270
C398        C  0.51868830  0.79248665  0.01475679    -0.14270
C399        C  0.47393603  0.83784325  0.00222516     0.07880
C400        C  0.41678681  0.82253512  0.00070959    -0.14270
H401        H  0.36223620  0.75472877  0.99709994     0.11870
H402        H  0.54464056  0.70157920  0.01966552     0.11870
H403        H  0.56192475  0.79954783  0.02717186     0.11870
H404        H  0.37951828  0.85495085  0.00076649     0.11870
C405        C  0.56654643  0.94288977  0.04917232    -0.14270
C406        C  0.54997025  0.90759953  0.00407623     0.07880
C407        C  0.59477191  0.87608721  0.97169530    -0.14270
C408        C  0.65271760  0.87932330  0.98320299    -0.14270
C409        C  0.66900472  0.91460200  0.02744598     0.07880
C410        C  0.62552469  0.94617402  0.06075055    -0.14270
H411        H  0.53452170  0.96779173  0.07583333     0.11870
H412        H  0.58441099  0.84780761  0.93718915     0.11870
H413        H  0.68485207  0.85379651  0.95702753     0.11870
H414        H  0.63704704  0.97394878  0.09515291     0.11870
C415        C  0.42390703  0.90130270  0.89560359    -0.14270
C416        C  0.47518863  0.91371351  0.92341412     0.07880
C417        C  0.51684571  0.93649575  0.88811633    -0.14270
C418        C  0.51337157  0.93449550  0.82834771    -0.14270
C419        C  0.46554953  0.91476302  0.80188729     0.07880
C420        C  0.41956382  0.90103131  0.83589938    -0.14270
H421        H  0.38639782  0.89190694  0.91890137     0.11870
H422        H  0.55303348  0.95563370  0.90599309     0.11870
H423        H  0.54678644  0.95076903  0.80281953     0.11870
H424        H  0.37975000  0.89073679  0.81611352     0.11870
C425        C  0.90970764  0.47079495  0.02165247    -0.14190
C426        C  0.94437053  0.43800328  0.04843311    -0.15750
C427        C  0.91403824  0.45386709  0.89944260    -0.14270
C428        C  0.86798540  0.49139457  0.92305482     0.07880
C429        C  0.82600501  0.51915798  0.88479167    -0.14270
C430        C  0.83266675  0.51359225  0.82541838    -0.14270
C431        C  0.88073490  0.47914187  0.80254029     0.07880
C432        C  0.92019066  0.44791682  0.84026751    -0.14270
H433        H  0.94753578  0.43124231  0.92598559     0.11870
H434        H  0.79008699  0.54884078  0.90045875     0.11870
H435        H  0.80107677  0.53745094  0.79754858     0.11870
H436        H  0.95759946  0.42026190  0.82415907     0.11870
C437        C  0.78630789  0.45267322  0.02122988    -0.14270
C438        C  0.80535683  0.50652990  0.00942423     0.07880
C439        C  0.76342391  0.55594149  0.01016599    -0.14270
C440        C  0.70498474  0.55133196  0.02019937    -0.14270
C441        C  0.68682473  0.49769974  0.03130083     0.07880
C442        C  0.72785987  0.44853739  0.03332541    -0.14270
H443        H  0.81635807  0.41345729  0.01934547     0.11870
H444        H  0.77464883  0.59808515  0.99916606     0.11870
H445        H  0.67361322  0.58962403  0.01809401     0.11870
H446        H  0.71418434  0.40659124  0.04125963     0.11870
C447        C  0.88279261  0.59753177  0.04748918    -0.14270
C448        C  0.88460397  0.57113659  0.99290510     0.07880
C449        C  0.89919291  0.60411387  0.94532935    -0.14270
C450        C  0.90486047  0.66247213  0.95124427    -0.14270
C451        C  0.89971237  0.68870667  0.00513050     0.07880
C452        C  0.89044939  0.65558220  0.05351004    -0.14270
H453        H  0.87315121  0.57358087  0.08521962     0.11870
H454        H  0.90554737  0.58597641  0.90284081     0.11870
H455        H  0.91443730  0.68692464  0.91381241     0.11870
H456        H  0.88763697  0.67506396  0.09582689     0.11870
C457        C  0.44070645  0.46674648  0.55145572    -0.14190
C458        C  0.41562168  0.43752616  0.51829878    -0.15750
C459        C  0.57301171  0.53020730  0.61264081    -0.14270
C460        C  0.53834383  0.49212831  0.58515093     0.07880
C461        C  0.56733702  0.44356261  0.55669233    -0.14270
C462        C  0.62824142  0.43342722  0.55664659    -0.14270
C463        C  0.66188163  0.47154225  0.58467625     0.07880
C464        C  0.63338564  0.52015021  0.61233069    -0.14270
H465        H  0.55275496  0.56735686  0.63622969     0.11870
H466        H  0.54344093  0.41259118  0.53544964     0.11870
H467        H  0.64899808  0.39576037  0.53423237     0.11870
H468        H  0.65769655  0.55045584  0.63423299     0.11870
C469        C  0.49840798  0.47645038  0.69736182    -0.14270
C470        C  0.45517438  0.48995174  0.65488224     0.07880
C471        C  0.39689101  0.49236141  0.67382607    -0.14270
C472        C  0.38319456  0.49620503  0.73268322    -0.14270
C473        C  0.42782109  0.49442218  0.77369781     0.07880
C474        C  0.48518116  0.48091247  0.75524992    -0.14270
H475        H  0.54353362  0.46374250  0.68744439     0.11870
H476        H  0.36168084  0.49485615  0.64308322     0.11870
H477        H  0.33809512  0.50194417  0.74589687     0.11870
H478        H  0.52042727  0.47313097  0.78583596     0.11870
C479        C  0.48667838  0.59796589  0.53826934    -0.14270
C480        C  0.45231828  0.56860764  0.57609268     0.07880
C481        C  0.40636272  0.60318392  0.60422320    -0.14270
C482        C  0.40129178  0.66325087  0.60222007    -0.14270
C483        C  0.44193774  0.69119494  0.57246120     0.07880
C484        C  0.48342637  0.65827481  0.53863000    -0.14270
H485        H  0.51959400  0.57424150  0.51157873     0.11870
H486        H  0.37400731  0.58569257  0.62905253     0.11870
H487        H  0.36636474  0.68808876  0.62565430     0.11870
H488        H  0.51296041  0.67917113  0.51217359     0.11870
C489        C  0.91304908  0.94121880  0.55329281    -0.14190
C490        C  0.93849390  0.97071824  0.52077188    -0.15750
C491        C  0.94601446  0.81140782  0.56627388    -0.14270
C492        C  0.88919570  0.84052516  0.57125079     0.07880
C493        C  0.84272857  0.80612615  0.57127872    -0.14270
C494        C  0.85278673  0.74607948  0.57044343    -0.14270
C495        C  0.90942606  0.71756058  0.56897577     0.07880
C496        C  0.95595572  0.75089852  0.56485217    -0.14270
H497        H  0.98306809  0.83549687  0.56725709     0.11870
H498        H  0.79815664  0.82447660  0.57740883     0.11870
H499        H  0.81584170  0.72191949  0.57275756     0.11870
H500        H  0.00033185  0.73024030  0.56298262     0.11870
C501        C  0.94451323  0.93546497  0.67620502    -0.14270
C502        C  0.90221993  0.90231800  0.65458844     0.07880
C503        C  0.87847003  0.86489926  0.69321703    -0.14270
C504        C  0.89345290  0.86277568  0.75088664    -0.14270
C505        C  0.93310293  0.89775618  0.77287793     0.07880
C506        C  0.95968097  0.93319360  0.73475699    -0.14270
H507        H  0.96470119  0.96439684  0.64870414     0.11870
H508        H  0.84569017  0.83871213  0.67933003     0.11870
H509        H  0.87220506  0.83488357  0.77876847     0.11870
H510        H  0.99026657  0.96104446  0.75062610     0.11870
C511        C  0.78478032  0.92765412  0.53623704    -0.14270
C512        C  0.81489722  0.92911693  0.58880887     0.07880
C513        C  0.78168098  0.94733979  0.63813414    -0.14270
C514        C  0.72088054  0.95343933  0.63675732    -0.14270
C515        C  0.69175703  0.94459438  0.58563858     0.07880
C516        C  0.72391248  0.93462619  0.53486385    -0.14270
H517        H  0.80838974  0.91617684  0.49696223     0.11870
H518        H  0.80191875  0.95471718  0.67879843     0.11870
H519        H  0.69659188  0.96460919  0.67571434     0.11870
H520        H  0.70185470  0.93028410  0.49437506     0.11870
loop_ 
_geom_bond_atom_site_label_1 
_geom_bond_atom_site_label_2 
_geom_bond_distance 
_geom_bond_site_symmetry_2 
_ccdc_geom_bond_type 
C1          C489   1.513       .  S
C1          C492   1.555       .  S
C1          C502   1.553       .  S
C1          C512   1.554       .  S
C2          C457   1.502       .  S
C2          C460   1.558       .  S
C2          C470   1.567       .  S
C2          C480   1.569       .  S
C3          C425   1.498   1_556  S
C3          C428   1.543       .  S
C3          C438   1.541   1_556  S
C3          C448   1.544       .  S
C4          C393   1.495   1_556  S
C4          C399   1.564   1_556  S
C4          C406   1.553   1_556  S
C4          C416   1.566       .  S
C5          C490   1.512   1_545  S
C5          C364   1.553       .  S
C5          C374   1.555   1_645  S
C5          C384   1.549   1_545  S
C6          C426   1.496       .  S
C6          C334   1.547       .  S
C6          C344   1.545   1_655  S
C6          C354   1.542       .  S
C7          C394   1.498   1_545  S
C7          C304   1.539       .  S
C7          C314   1.550       .  S
C7          C324   1.546       .  S
C8          C458   1.506       .  S
C8          C274   1.553       .  S
C8          C284   1.543       .  S
C8          C294   1.553       .  S
Zr9          O10   2.442       .  S
Zr9          O11   2.448       .  S
Zr9          O12   2.451       .  S
Zr9          O15   2.423       .  S
Zr9          O17   2.373       .  S
Zr9          O18   2.383   1_556  S
Zr9          O19   2.403       .  S
Zr9          O20   2.401   1_556  S
O10          H66   0.990       .  S
O10          H74   0.991       .  S
O11          C31   1.286   1_556  A
O12          C33   1.288       .  A
O13         Zr23   2.425       .  S
O13          C32   1.283       .  A
O14         Zr22   2.437   1_655  S
O14          C33   1.284       .  A
O15          C32   1.285   1_556  A
O16         Zr24   2.392       .  S
O16          C31   1.275       .  A
O17         Zr22   2.402   1_655  S
O17         Zr24   2.385   1_556  S
O18         Zr23   2.401       .  S
O18         Zr24   2.378       .  S
O18          H53   0.966       .  S
O19         Zr22   2.405   1_655  S
O19         Zr39   2.381   1_565  S
O19          H56   0.964       .  S
O20         Zr23   2.390       .  S
O20         Zr39   2.378   1_564  S
Zr21         O46   2.441   1_655  S
Zr21         O40   2.450       .  S
Zr21         O48   2.449       .  S
Zr21         O36   2.428   1_655  S
Zr21         O27   2.387   1_545  S
Zr21         O28   2.411   1_645  S
Zr21         O29   2.375       .  S
Zr21         O30   2.382       .  S
Zr22         O41   2.436   1_565  S
Zr22         O34   2.436       .  S
Zr22         O35   2.433       .  S
Zr22         O28   2.405   1_556  S
Zr22         O29   2.399   1_466  S
Zr23         O25   2.435   1_565  S
Zr23         O47   2.439       .  S
Zr23         O49   2.433       .  S
Zr23         O27   2.383       .  S
Zr23         O30   2.397   1_565  S
Zr24         O50   2.436       .  S
Zr24         O51   2.435   1_655  S
Zr24         O26   2.437   1_655  S
Zr24         O27   2.375       .  S
Zr24         O28   2.385   1_655  S
O25          H62   0.990       .  S
O26          H57   0.990       .  S
O26          H71   0.990       .  S
O28          H54   0.964       .  S
O29         Zr39   2.384   1_554  S
O30         Zr39   2.386   1_554  S
O30          H55   0.966       .  S
C31         C451   1.464       .  S
C32         C409   1.475       .  S
C33         C505   1.485       .  S
O34          H70   0.990       .  S
O35          C37   1.284   1_556  A
O36          C37   1.284   1_545  A
C37         C327   1.474   1_565  S
O38         Zr39   2.439       .  S
O38          H67   0.990       .  S
Zr39         O42   2.438       .  S
Zr39         O43   2.440   1_556  S
Zr39         O44   2.385   1_556  S
O40          C45   1.286       .  A
O41          H58   0.990       .  S
O41          H73   0.990       .  S
O42          H59   0.990       .  S
O43          H63   0.990       .  S
O43          H72   0.989       .  S
O44          C45   1.273       .  A
C45         C357   1.460       .  S
O46          H65   0.991       .  S
O46          H69   0.990       .  S
O47          H61   0.990       .  S
O47          H68   0.990       .  S
O48          C52   1.289   1_545  A
O49          C52   1.284       .  A
O50          H60   0.990       .  S
O51          H64   0.990       .  S
C52         C387   1.483       .  S
Zr75         O76   2.441       .  S
Zr75         O77   2.466       .  S
Zr75         O78   2.466       .  S
Zr75         O81   2.472       .  S
Zr75         O83   2.381       .  S
Zr75         O84   2.391       .  S
Zr75         O85   2.414       .  S
Zr75         O86   2.397       .  S
O76         H132   0.990       .  S
O76         H140   0.991       .  S
O77          C97   1.290       .  A
O78          C99   1.291       .  A
O79         Zr89   2.422   1_655  S
O79          C98   1.283       .  A
O80         Zr88   2.415       .  S
O80          C99   1.281       .  A
O81          C98   1.294       .  A
O82         Zr90   2.374       .  S
O82          C97   1.273       .  A
O83         Zr88   2.393       .  S
O83         Zr90   2.384       .  S
O84         Zr89   2.397   1_655  S
O84         Zr90   2.381       .  S
O84         H119   0.966       .  S
O85         Zr88   2.400       .  S
O85        Zr105   2.382       .  S
O85         H122   0.964       .  S
O86         Zr89   2.382   1_655  S
O86        Zr105   2.379       .  S
Zr87        O112   2.441   1_655  S
Zr87        O106   2.457       .  S
Zr87        O114   2.463   1_655  S
Zr87        O102   2.484       .  S
Zr87         O93   2.400   1_655  S
Zr87         O94   2.407       .  S
Zr87         O95   2.380       .  S
Zr87         O96   2.391       .  S
Zr88        O107   2.435       .  S
Zr88        O100   2.436       .  S
Zr88        O101   2.409       .  S
Zr88         O94   2.402       .  S
Zr88         O95   2.398       .  S
Zr89         O91   2.435       .  S
Zr89        O113   2.439       .  S
Zr89        O115   2.414       .  S
Zr89         O93   2.387       .  S
Zr89         O96   2.397   1_455  S
Zr90        O116   2.436   1_655  S
Zr90        O117   2.435   1_655  S
Zr90         O92   2.437       .  S
Zr90         O93   2.372   1_655  S
Zr90         O94   2.374       .  S
O91         H128   0.990       .  S
O92         H123   0.990       .  S
O92         H137   0.990       .  S
O94         H120   0.964       .  S
O95        Zr105   2.385       .  S
O96        Zr105   2.381       .  S
O96         H121   0.966   1_655  S
C97         C431   1.480       .  S
C98         C495   1.489       .  S
C99         C463   1.484       .  S
O100        H136   0.990       .  S
O101        C103   1.280       .  A
O102        C103   1.295       .  A
C103        C367   1.484       .  S
O104       Zr105   2.440       .  S
O104        H133   0.990       .  S
Zr105       O108   2.437       .  S
Zr105       O109   2.439       .  S
Zr105       O110   2.390       .  S
O106        C111   1.289       .  A
O107        H124   0.990       .  S
O107        H139   0.990       .  S
O108        H125   0.990       .  S
O109        H129   0.990       .  S
O109        H138   0.990       .  S
O110        C111   1.275       .  A
C111        C337   1.473       .  S
O112        H131   0.991       .  S
O112        H135   0.990       .  S
O113        H127   0.990       .  S
O113        H134   0.990       .  S
O114        C118   1.292       .  A
O115        C118   1.282       .  A
O116        H126   0.990       .  S
O117        H130   0.990       .  S
C118        C277   1.484       .  S
Zr141       O142   2.442       .  S
Zr141       O143   2.445       .  S
Zr141       O144   2.453       .  S
Zr141       O147   2.440       .  S
Zr141       O149   2.382       .  S
Zr141       O150   2.380   1_556  S
Zr141       O151   2.409       .  S
Zr141       O152   2.401   1_556  S
O142        H198   0.990       .  S
O142        H206   0.990       .  S
O143        C163   1.285   1_556  A
O144        C165   1.289       .  A
O145       Zr155   2.419       .  S
O145        C164   1.281       .  A
O146       Zr154   2.433       .  S
O146        C165   1.283       .  A
O147        C164   1.286   1_556  A
O148       Zr156   2.384       .  S
O148        C163   1.273       .  A
O149       Zr154   2.405       .  S
O149       Zr156   2.384   1_556  S
O150       Zr155   2.399       .  S
O150       Zr156   2.381       .  S
O150        H185   0.966       .  S
O151       Zr154   2.410       .  S
O151       Zr171   2.372       .  S
O151        H188   0.963       .  S
O152       Zr155   2.385       .  S
O152       Zr171   2.381   1_554  S
Zr153       O178   2.442       .  S
Zr153       O172   2.447       .  S
Zr153       O180   2.447       .  S
Zr153       O168   2.428       .  S
Zr153       O159   2.386       .  S
Zr153       O160   2.411       .  S
Zr153       O161   2.376       .  S
Zr153       O162   2.381       .  S
Zr154       O173   2.436       .  S
Zr154       O166   2.436       .  S
Zr154       O167   2.442       .  S
Zr154       O160   2.401   1_556  S
Zr154       O161   2.400   1_556  S
Zr155       O157   2.436       .  S
Zr155       O179   2.439       .  S
Zr155       O181   2.420       .  S
Zr155       O159   2.384       .  S
Zr155       O162   2.393       .  S
Zr156       O182   2.436       .  S
Zr156       O183   2.435       .  S
Zr156       O158   2.437       .  S
Zr156       O159   2.377       .  S
Zr156       O160   2.375       .  S
O157        H194   0.990       .  S
O158        H189   0.990       .  S
O158        H203   0.990       .  S
O160        H186   0.964       .  S
O161       Zr171   2.387   1_554  S
O162       Zr171   2.382   1_554  S
O162        H187   0.966       .  S
C163        C396   1.461       .  S
C164        C441   1.465       .  S
C165        C473   1.479       .  S
O166        H202   0.990       .  S
O167        C169   1.286   1_556  A
O168        C169   1.284       .  A
C169        C347   1.479       .  S
O170       Zr171   2.439       .  S
O170        H199   0.990       .  S
Zr171       O174   2.438       .  S
Zr171       O175   2.440   1_556  S
Zr171       O176   2.381   1_556  S
O172        C177   1.285       .  A
O173        H190   0.990       .  S
O173        H205   0.990       .  S
O174        H191   0.990       .  S
O175        H195   0.990       .  S
O175        H204   0.989       .  S
O176        C177   1.272       .  A
C177        C307   1.454       .  S
O178        H197   0.991       .  S
O178        H201   0.990       .  S
O179        H193   0.990       .  S
O179        H200   0.990       .  S
O180        C184   1.288       .  A
O181        C184   1.282       .  A
O182        H192   0.990       .  S
O183        H196   0.990       .  S
C184        C287   1.473       .  S
Zr207       O208   2.440       .  S
Zr207       O209   2.469       .  S
Zr207       O210   2.484       .  S
Zr207       O213   2.479       .  S
Zr207       O215   2.383       .  S
Zr207       O216   2.393       .  S
Zr207       O217   2.412       .  S
Zr207       O218   2.404       .  S
O208        H264   0.990       .  S
O208        H272   0.991       .  S
O209        C229   1.289       .  A
O210        C231   1.293       .  A
O211       Zr221   2.402       .  S
O211        C230   1.279       .  A
O212       Zr220   2.411   1_565  S
O212        C231   1.279       .  A
O213        C230   1.293       .  A
O214       Zr222   2.376   1_565  S
O214        C229   1.272       .  A
O215       Zr220   2.394   1_565  S
O215       Zr222   2.386   1_565  S
O216       Zr221   2.393       .  S
O216       Zr222   2.379   1_565  S
O216        H251   0.966       .  S
O217       Zr220   2.400   1_565  S
O217       Zr237   2.382       .  S
O217        H254   0.964       .  S
O218       Zr221   2.386       .  S
O218       Zr237   2.381       .  S
Zr219       O244   2.440       .  S
Zr219       O238   2.464       .  S
Zr219       O246   2.472       .  S
Zr219       O234   2.483       .  S
Zr219       O225   2.399   1_545  S
Zr219       O226   2.410       .  S
Zr219       O227   2.383       .  S
Zr219       O228   2.389   1_545  S
Zr220       O239   2.435       .  S
Zr220       O232   2.436       .  S
Zr220       O233   2.407       .  S
Zr220       O226   2.401       .  S
Zr220       O227   2.396       .  S
Zr221       O223   2.435       .  S
Zr221       O245   2.440       .  S
Zr221       O247   2.409       .  S
Zr221       O225   2.383       .  S
Zr221       O228   2.391       .  S
Zr222       O248   2.436   1_545  S
Zr222       O249   2.435       .  S
Zr222       O224   2.437       .  S
Zr222       O225   2.374   1_545  S
Zr222       O226   2.376       .  S
O223        H260   0.990       .  S
O224        H255   0.990       .  S
O224        H269   0.990       .  S
O226        H252   0.964       .  S
O227       Zr237   2.386   1_545  S
O228       Zr237   2.382       .  S
O228        H253   0.966       .  S
C229        C419   1.463       .  S
C230        C483   1.473       .  S
C231        C515   1.472       .  S
O232        H268   0.990       .  S
O233        C235   1.279       .  A
O234        C235   1.293       .  A
C235        C297   1.471       .  S
O236       Zr237   2.440       .  S
O236        H265   0.990       .  S
Zr237       O240   2.437       .  S
Zr237       O241   2.439       .  S
Zr237       O242   2.391       .  S
O238        C243   1.290   1_545  A
O239        H256   0.990       .  S
O239        H271   0.990       .  S
O240        H257   0.990       .  S
O241        H261   0.990       .  S
O241        H270   0.990       .  S
O242        C243   1.276       .  A
C243        C317   1.478       .  S
O244        H263   0.991       .  S
O244        H267   0.990       .  S
O245        H259   0.990       .  S
O245        H266   0.990       .  S
O246        C250   1.294   1_545  A
O247        C250   1.280       .  A
O248        H258   0.990       .  S
O249        H262   0.990       .  S
C250        C377   1.482       .  S
C273        C274   1.412       .  A
C273        C278   1.403       .  A
C273        H279   1.081       .  S
C274        C275   1.418       .  A
C275        C276   1.392       .  A
C275        H280   1.078       .  S
C276        C277   1.397       .  A
C276        H281   1.083       .  S
C277        C278   1.409       .  A
C278        H282   1.083       .  S
C283        C284   1.413       .  A
C283        C288   1.392       .  A
C283        H289   1.080       .  S
C284        C285   1.414       .  A
C285        C286   1.400       .  A
C285        H290   1.083       .  S
C286        C287   1.403       .  A
C286        H291   1.083       .  S
C287        C288   1.400       .  A
C288        H292   1.084       .  S
C293        C294   1.424       .  A
C293        C298   1.394       .  A
C293        H299   1.081       .  S
C294        C295   1.410       .  A
C295        C296   1.404       .  A
C295        H300   1.083       .  S
C296        C297   1.406       .  A
C296        H301   1.083       .  S
C297        C298   1.391       .  A
C298        H302   1.084       .  S
C303        C304   1.413       .  A
C303        C308   1.391       .  A
C303        H309   1.081       .  S
C304        C305   1.413       .  A
C305        C306   1.396       .  A
C305        H310   1.083       .  S
C306        C307   1.399       .  A
C306        H311   1.083       .  S
C307        C308   1.396       .  A
C308        H312   1.084       .  S
C313        C314   1.420       .  A
C313        C318   1.393       .  A
C313        H319   1.081       .  S
C314        C315   1.409   1_545  A
C315        C316   1.400       .  A
C315        H320   1.082       .  S
C316        C317   1.409       .  A
C316        H321   1.083       .  S
C317        C318   1.395   1_565  A
C318        H322   1.083       .  S
C323        C324   1.415   1_565  A
C323        C328   1.404       .  A
C323        H329   1.079   1_554  S
C324        C325   1.412       .  A
C325        C326   1.384       .  A
C325        H330   1.077       .  S
C326        C327   1.397       .  A
C326        H331   1.084       .  S
C327        C328   1.405   1_545  A
C328        H332   1.083   1_554  S
C333        C334   1.408       .  A
C333        C338   1.399       .  A
C333        H339   1.083       .  S
C334        C335   1.421       .  A
C335        C336   1.391       .  A
C335        H340   1.081       .  S
C336        C337   1.394       .  A
C336        H341   1.083       .  S
C337        C338   1.407       .  A
C338        H342   1.083       .  S
C343        C344   1.412       .  A
C343        C348   1.385       .  A
C343        H349   1.079       .  S
C344        C345   1.415       .  A
C345        C346   1.406       .  A
C345        H350   1.081   1_554  S
C346        C347   1.406       .  A
C346        H351   1.083   1_554  S
C347        C348   1.400       .  A
C348        H352   1.083       .  S
C353        C354   1.413       .  A
C353        C358   1.396       .  A
C353        H359   1.083       .  S
C354        C355   1.415   1_655  A
C355        C356   1.393       .  A
C355        H360   1.079       .  S
C356        C357   1.396   1_455  A
C356        H361   1.084       .  S
C357        C358   1.400       .  A
C358        H362   1.083       .  S
C363        C364   1.421       .  A
C363        C368   1.392       .  A
C363        H369   1.081   1_655  S
C364        C365   1.408       .  A
C365        C366   1.407       .  A
C365        H370   1.082       .  S
C366        C367   1.413       .  A
C366        H371   1.083       .  S
C367        C368   1.394       .  A
C368        H372   1.083       .  S
C373        C374   1.411       .  A
C373        C378   1.403       .  A
C373        H379   1.083       .  S
C374        C375   1.419   1_565  A
C375        C376   1.395       .  A
C375        H380   1.080       .  S
C376        C377   1.398   1_545  A
C376        H381   1.083       .  S
C377        C378   1.408       .  A
C378        H382   1.083       .  S
C383        C384   1.416   1_455  A
C383        C388   1.392   1_455  A
C383        H389   1.079       .  S
C384        C385   1.414       .  A
C385        C386   1.404       .  A
C385        H390   1.083       .  S
C386        C387   1.405       .  A
C386        H391   1.083       .  S
C387        C388   1.400       .  A
C388        H392   1.083   1_655  S
C393        C394   1.216       .  T
C395        C396   1.399   1_556  A
C395        C400   1.396   1_556  A
C395        H401   1.083       .  S
C396        C397   1.392       .  A
C397        C398   1.390       .  A
C397        H402   1.084       .  S
C398        C399   1.422       .  A
C398        H403   1.075       .  S
C399        C400   1.414       .  A
C400        H404   1.078       .  S
C405        C406   1.415       .  A
C405        C410   1.405       .  A
C405        H411   1.081       .  S
C406        C407   1.415   1_554  A
C407        C408   1.381       .  A
C407        H412   1.084       .  S
C408        C409   1.398   1_556  A
C408        H413   1.083       .  S
C409        C410   1.407       .  A
C410        H414   1.083       .  S
C415        C416   1.414       .  A
C415        C420   1.396       .  A
C415        H421   1.072       .  S
C416        C417   1.423       .  A
C417        C418   1.397       .  A
C417        H422   1.080       .  S
C418        C419   1.394       .  A
C418        H423   1.084       .  S
C419        C420   1.399       .  A
C420        H424   1.084       .  S
C425        C426   1.215       .  T
C427        C428   1.408       .  A
C427        C432   1.392       .  A
C427        H433   1.081       .  S
C428        C429   1.419       .  A
C429        C430   1.397       .  A
C429        H434   1.080       .  S
C430        C431   1.398       .  A
C430        H435   1.083       .  S
C431        C432   1.409       .  A
C432        H436   1.083       .  S
C437        C438   1.412       .  A
C437        C442   1.399       .  A
C437        H443   1.083       .  S
C438        C439   1.416       .  A
C439        C440   1.392       .  A
C439        H444   1.081   1_554  S
C440        C441   1.396       .  A
C440        H445   1.084       .  S
C441        C442   1.401       .  A
C442        H446   1.083       .  S
C447        C448   1.410   1_554  A
C447        C452   1.396       .  A
C447        H453   1.083       .  S
C448        C449   1.419       .  A
C449        C450   1.392       .  A
C449        H454   1.079       .  S
C450        C451   1.394   1_556  A
C450        H455   1.084       .  S
C451        C452   1.403       .  A
C452        H456   1.083       .  S
C457        C458   1.222       .  T
C459        C460   1.420       .  A
C459        C464   1.391       .  A
C459        H465   1.083       .  S
C460        C461   1.410       .  A
C461        C462   1.403       .  A
C461        H466   1.081       .  S
C462        C463   1.411       .  A
C462        H467   1.083       .  S
C463        C464   1.398       .  A
C464        H468   1.083       .  S
C469        C470   1.418       .  A
C469        C474   1.385       .  A
C469        H475   1.077       .  S
C470        C471   1.417       .  A
C471        C472   1.409       .  A
C471        H476   1.082       .  S
C472        C473   1.405       .  A
C472        H477   1.083       .  S
C473        C474   1.397       .  A
C474        H478   1.083       .  S
C479        C480   1.423       .  A
C479        C484   1.402       .  A
C479        H485   1.083       .  S
C480        C481   1.416       .  A
C481        C482   1.396       .  A
C481        H486   1.069       .  S
C482        C483   1.397       .  A
C482        H487   1.084       .  S
C483        C484   1.398       .  A
C484        H488   1.083       .  S
C489        C490   1.226       .  T
C491        C492   1.412       .  A
C491        C496   1.405       .  A
C491        H497   1.083       .  S
C492        C493   1.420       .  A
C493        C494   1.395       .  A
C493        H498   1.079       .  S
C494        C495   1.399       .  A
C494        H499   1.083       .  S
C495        C496   1.409       .  A
C496        H500   1.083   1_655  S
C501        C502   1.413       .  A
C501        C506   1.409       .  A
C501        H507   1.082       .  S
C502        C503   1.416       .  A
C503        C504   1.388       .  A
C503        H508   1.081       .  S
C504        C505   1.398       .  A
C504        H509   1.083       .  S
C505        C506   1.410       .  A
C506        H510   1.083       .  S
C511        C512   1.412       .  A
C511        C516   1.401       .  A
C511        H517   1.083       .  S
C512        C513   1.419       .  A
C513        C514   1.400       .  A
C513        H518   1.080       .  S
C514        C515   1.396       .  A
C514        H519   1.083       .  S
C515        C516   1.403       .  A
C516        H520   1.083       .  S
