geometry optimzed in LAMMPS
_audit_creation_date              2020-12-01 
_audit_creation_method            'lammps2cif' 
_symmetry_space_group_name_H-M    'P1' 
_symmetry_Int_Tables_number       1 
_symmetry_cell_setting            triclinic 
loop_ 
_symmetry_equiv_pos_as_xyz 
  x,y,z 
_cell_length_a                    41.5178645 
_cell_length_b                    41.10642998082225 
_cell_length_c                    37.46581292360215 
_cell_angle_alpha                 90.42824429624997 
_cell_angle_beta                  108.95564284682318 
_cell_angle_gamma                 89.39631908484938 
loop_ 
_atom_site_label 
_atom_site_type_symbol 
_atom_site_fract_x 
_atom_site_fract_y 
_atom_site_fract_z 
_atom_site_charge 
N1          N  0.22922366  0.17299062  0.42811463    -0.02800
C2          C  0.19895563  0.18562293  0.42812448    -0.00200
C3          C  0.17288778  0.17276870  0.39847594    -0.23100
C4          C  0.18771768  0.15154544  0.37972511    -0.23300
C5          C  0.22242331  0.15165080  0.39885679    -0.00300
H6          H  0.14584996  0.17582695  0.39344095     0.13500
H7          H  0.17418229  0.13504945  0.35733987     0.13500
N8          N  0.13922449  0.28161381  0.14470786    -0.02800
C9          C  0.15951581  0.30762693  0.15917445    -0.00200
C10         C  0.15769132  0.31575430  0.19425865    -0.23100
C11         C  0.13636422  0.29373500  0.20209975    -0.23300
C12         C  0.12481029  0.27312495  0.17124197    -0.00300
H13         H  0.16924395  0.33642554  0.21156281     0.13500
H14         H  0.12761123  0.29465193  0.22631833     0.13500
N15         N  0.25132671  0.49322150  0.00635652    -0.02800
C16         C  0.23705432  0.49228059  0.03436381    -0.00200
C17         C  0.22505999  0.52290691  0.03956915    -0.23100
C18         C  0.23512700  0.04374176  0.51431621    -0.23300
C19         C  0.24997057  0.02529840  0.49284342    -0.00300
H20         H  0.21174407  0.52955740  0.05908459     0.13500
H21         H  0.22932584  0.06952658  0.51167078     0.13500
N22         N  0.43928525  0.30406111  0.04311346    -0.02800
C23         C  0.43148736  0.33308691  0.02508484    -0.00200
C24         C  0.46074981  0.35085554  0.03033785    -0.23100
C25         C  0.48744094  0.33200538  0.05187849    -0.23300
C26         C  0.47365424  0.30332895  0.05920222    -0.00300
H27         H  0.46231446  0.37567012  0.02157653     0.13500
H28         H  0.51379608  0.33935710  0.06309965     0.13500
N29         N  0.19273333  0.00174753  0.29415151    -0.02800
C30         C  0.19077995  0.47733553  0.27290614    -0.00200
C31         C  0.22303776  0.46620363  0.27525904    -0.23100
C32         C  0.24602709  0.48646856  0.29974439    -0.23300
C33         C  0.22660365  0.00644734  0.31138592    -0.00300
H34         H  0.22920451  0.44413668  0.26282403     0.13500
H35         H  0.27344257  0.48347525  0.30975636     0.13500
N36         N  0.98877931  0.13947598  0.18897524    -0.02800
C37         C  0.45716251  0.12771652  0.18538697    -0.00200
C38         C  0.43397044  0.13920688  0.15233734    -0.23100
C39         C  0.45174839  0.15818107  0.13528576    -0.23300
C40         C  0.98521409  0.15860063  0.15836879    -0.00300
H41         H  0.40659553  0.13641611  0.14328674     0.13500
H42         H  0.44060619  0.17331934  0.11074996     0.13500
N43         N  0.38851547  0.03653514  0.39506629    -0.02800
C44         C  0.41281779  0.51148003  0.41004858    -0.00200
C45         C  0.41358644  0.50125288  0.44529190    -0.23100
C46         C  0.39036695  0.52028914  0.45520491    -0.23300
C47         C  0.37444930  0.04188629  0.42263574    -0.00300
H48         H  0.42678358  0.48007417  0.46030532     0.13500
H49         H  0.38227303  0.51657284  0.47954431     0.13500
N50         N  0.98768631  0.33387379  0.22839899    -0.02800
C51         C  0.46410957  0.34113699  0.24525309    -0.00200
C52         C  0.43977096  0.31720302  0.23840577    -0.23100
C53         C  0.44892165  0.29375361  0.21713919    -0.23300
C54         C  0.97859960  0.30433898  0.21174786    -0.00300
H55         H  0.41817374  0.31655328  0.24854470     0.13500
H56         H  0.43571013  0.27117799  0.20735121     0.13500
In57       In  0.27332842  0.06503564  0.40317405     1.36900
C58         C  0.25933068  0.03877868  0.46127424     0.78300
O59         O  0.32206006  0.07016578  0.38759282    -0.60200
O60         O  0.32466300  0.04936781  0.43997049    -0.51100
C61         C  0.24198420  0.02904237  0.34278812     0.70900
O62         O  0.22832087  0.03618741  0.36737030    -0.45900
C63         C  0.24447247  0.12390714  0.39623583     0.75700
O64         O  0.26463515  0.02164317  0.43565643    -0.57800
O65         O  0.27361804  0.11849466  0.41959277    -0.47900
O66         O  0.26157510  0.06895909  0.45725102    -0.54200
C67         C  0.34000536  0.05542835  0.41687063     0.85800
O68         O  0.27104514  0.04107917  0.34849331    -0.56100
O69         O  0.23314888  0.10105522  0.37324784    -0.59400
In70       In  0.02569823  0.24727920  0.15064132     1.36900
C71         C  0.99689834  0.28423570  0.19161044     0.78300
O72         O  0.02272078  0.28690700  0.10907906    -0.60200
O73         O  0.48072830  0.25522502  0.09766659    -0.51100
C74         C  0.09206258  0.25584958  0.16459879     0.70900
O75         O  0.07819404  0.25514143  0.19002080    -0.45900
C76         C  0.00763077  0.18593053  0.15645709     0.75700
O77         O  0.02605285  0.29016973  0.19007535    -0.57800
O78         O  0.00630428  0.19860077  0.12538622    -0.47900
O79         O  0.48392687  0.25873198  0.17415184    -0.54200
C80         C  0.49304711  0.28042835  0.08857302     0.85800
O81         O  0.07326207  0.24585684  0.13275616    -0.56100
O82         O  0.02394890  0.20235419  0.18509205    -0.59400
C83         C  0.46131774  0.47453542  0.34864623    -0.10700
C84         C  0.44062969  0.44767907  0.33343996     0.15900
C85         C  0.41050896  0.44309433  0.34244162     0.02800
C86         C  0.40273975  0.46413002  0.36789235    -0.15000
C87         C  0.42381145  0.49039100  0.38400567    -0.09900
C88         C  0.45315847  0.49604753  0.37379864     0.09500
C89         C  0.45244888  0.42256403  0.31187760     0.10500
S90         S  0.38103157  0.41065966  0.32258132    -0.24200
H91         H  0.37977911  0.46017807  0.37498319     0.20800
S92         S  0.48140293  0.52965187  0.39208200    -0.29900
H93         H  0.48443291  0.47814284  0.34180159     0.11100
C94         C  0.45138620  0.42731467  0.27426645     0.04300
C95         C  0.45765119  0.40072494  0.25347121    -0.12200
C96         C  0.46473446  0.36968254  0.26972480    -0.07800
C97         C  0.46818200  0.36570673  0.30819330     0.07700
C98         C  0.46194599  0.39208959  0.32872346    -0.12900
S99         S  0.43935012  0.46639624  0.25197190    -0.29900
H100        H  0.45512944  0.40362445  0.22398300     0.12000
S101        S  0.47923882  0.32735586  0.33249193    -0.27000
H102        H  0.46325496  0.38856673  0.35780897     0.09200
H103        H  0.47266944  0.53499474  0.42486403     0.27700
H104        H  0.44479333  0.45821978  0.21783919     0.22500
H105        H  0.49686404  0.31404333  0.30946172     0.27800
H106        H  0.38726672  0.40912722  0.28788963     0.16600
C107        C  0.41797423  0.09544800  0.33832647    -0.10700
C108        C  0.40509519  0.08162656  0.30217051     0.15900
C109        C  0.38111760  0.05623280  0.29608643     0.02800
C110        C  0.37273916  0.04370571  0.32668285    -0.15000
C111        C  0.38704931  0.05652061  0.36319299    -0.09900
C112        C  0.40868381  0.08363562  0.36847405     0.09500
C113        C  0.41851946  0.09331127  0.27220192     0.10500
S114        S  0.36131319  0.03810186  0.25034667    -0.24200
H115        H  0.35650490  0.02260834  0.32251646     0.20800
S116        S  0.42847555  0.10145234  0.41429544    -0.29900
H117        H  0.43628518  0.11495673  0.34337968     0.11100
C118        C  0.41332758  0.12569861  0.25934649     0.04300
C119        C  0.42742376  0.13617357  0.23211275    -0.12200
C120        C  0.44608792  0.11491276  0.21656618    -0.07800
C121        C  0.45064393  0.08223390  0.22884582     0.07700
C122        C  0.43754503  0.07201918  0.25708568    -0.12900
S123        S  0.38730320  0.15335451  0.27622568    -0.29900
H124        H  0.42326210  0.16101482  0.22211999     0.12000
S125        S  0.47131847  0.05207695  0.20855907    -0.27000
H126        H  0.44157236  0.04707544  0.26680694     0.09200
H127        H  0.39847187  0.10179617  0.42393398     0.27700
H128        H  0.39089938  0.18064169  0.25545761     0.22500
H129        H  0.45950430  0.06492500  0.17188837     0.27800
H130        H  0.36174123  0.06637659  0.22960595     0.16600
C131        C  0.13833511  0.07717027  0.26870266    -0.10700
C132        C  0.10778994  0.06657541  0.27274008     0.15900
C133        C  0.10678000  0.03556335  0.28848179     0.02800
C134        C  0.13608052  0.01563441  0.29870965    -0.15000
C135        C  0.16588393  0.02524569  0.29175800    -0.09900
C136        C  0.16702283  0.05672052  0.27708187     0.09500
C137        C  0.07656364  0.08552855  0.25275270     0.10500
S138        S  0.06818616  0.01856039  0.29243760    -0.24200
H139        H  0.13489847  0.99149307  0.30959775     0.20800
S140        S  0.20295976  0.06941261  0.26355073    -0.29900
H141        H  0.13864066  0.10057798  0.25573776     0.11100
C142        C  0.06327105  0.11025806  0.27042179     0.04300
C143        C  0.03454359  0.12838413  0.24898182    -0.12200
C144        C  0.01977303  0.12285164  0.21006560    -0.07800
C145        C  0.03367413  0.09850409  0.19244694     0.07700
C146        C  0.06171014  0.08010027  0.21395006    -0.12900
S147        S  0.08288406  0.11848272  0.32010343    -0.29900
H148        H  0.02343762  0.14677602  0.26233286     0.12000
S149        S  0.01485367  0.08984267  0.14266297    -0.27000
H150        H  0.07243731  0.06146817  0.20048335     0.09200
H151        H  0.19124805  0.10109162  0.25200624     0.27700
H152        H  0.06127372  0.14451979  0.32212483     0.22500
H153        H  0.53464748  0.06177082  0.14208585     0.27800
H154        H  0.05071591  0.04804830  0.29199649     0.16600
C155        C  0.10027318  0.44550269  0.22744281    -0.10700
C156        C  0.10387504  0.41419975  0.24326949     0.15900
C157        C  0.13682008  0.40267087  0.26369519     0.02800
C158        C  0.16416901  0.42401196  0.27279465    -0.15000
C159        C  0.16041226  0.45607234  0.25920343    -0.09900
C160        C  0.12850165  0.46599369  0.23382623     0.09500
C161        C  0.07319534  0.39434188  0.23941862     0.10500
S162        S  0.14582581  0.36097854  0.27882204    -0.24200
H163        H  0.18878686  0.41535262  0.29082158     0.20800
S164        S  0.12240997  0.50317346  0.20713296    -0.29900
H165        H  0.07538511  0.45397140  0.20994081     0.11100
C166        C  0.06620375  0.38291001  0.27158559     0.04300
C167        C  0.03928672  0.36140469  0.26703986    -0.12200
C168        C  0.01738768  0.35289288  0.23113668    -0.07800
C169        C  0.02272323  0.36623043  0.19893317     0.07700
C170        C  0.05107179  0.38621513  0.20334129    -0.12900
S171        S  0.09020262  0.39704779  0.31846655    -0.29900
H172        H  0.03446705  0.35187815  0.29160420     0.12000
S173        S  0.99242459  0.35939031  0.15256405    -0.27000
H174        H  0.05597308  0.39571018  0.17874794     0.09200
H175        H  0.15698312  0.00511592  0.20997461     0.28100
H176        H  0.07233747  0.37960505  0.33810212     0.22500
H177        H  0.00926990  0.37759376  0.13245282     0.27800
H178        H  0.11797060  0.34757135  0.25052487     0.16600
C179        C  0.27711556  0.41173881  0.47266879    -0.10700
C180        C  0.31583172  0.41689951  0.99211282     0.15900
C181        C  0.32866614  0.44845409  0.00281535     0.02800
C182        C  0.30636036  0.47371340  0.00417968    -0.15000
C183        C  0.27149520  0.46811102  0.99653598    -0.09900
C184        C  0.25519021  0.43733529  0.47497863     0.09500
C185        C  0.33935209  0.38901447  0.99467462     0.10500
S186        S  0.37352155  0.45755452  0.01777081    -0.24200
H187        H  0.31660885  0.49746572  0.01418660     0.20800
S188        S  0.20998034  0.43037380  0.45753506    -0.29900
H189        H  0.26657098  0.38825085  0.46193627     0.11100
C190        C  0.34779503  0.36813666  0.02607992     0.04300
C191        C  0.37653373  0.34793299  0.03349326    -0.12200
C192        C  0.39673316  0.34744801  0.00992606    -0.07800
C193        C  0.38616009  0.36597948  0.97637951     0.07700
C194        C  0.35782782  0.38679994  0.96932727    -0.12900
S195        S  0.32432624  0.36971963  0.05909176    -0.29900
H196        H  0.38501714  0.33468748  0.05977997     0.12000
S197        S  0.40935547  0.36787894  0.43986233    -0.27000
H198        H  0.35117649  0.40267214  0.94489875     0.09200
H199        H  0.20043248  0.46334484  0.45173675     0.27700
H200        H  0.34375959  0.34625668  0.08437889     0.22500
H201        H  0.42245446  0.33378275  0.95164503     0.27800
H202        H  0.38448290  0.42865951  0.03811720     0.16600
C203        C  0.24631041  0.41157977  0.08760131    -0.10700
C204        C  0.21248168  0.40664983  0.08634412     0.15900
C205        C  0.18827122  0.43171145  0.07168934     0.02800
C206        C  0.19698777  0.45836302  0.05394267    -0.15000
C207        C  0.23042273  0.46280396  0.05375924    -0.09900
C208        C  0.25581699  0.44015628  0.07335992     0.09500
C209        C  0.20318592  0.37638797  0.10230673     0.10500
S210        S  0.14655755  0.43240873  0.07698723    -0.24200
H211        H  0.17754092  0.47640459  0.04103375     0.20800
S212        S  0.30073283  0.44781670  0.08529740    -0.29900
H213        H  0.26567627  0.39364272  0.10106103     0.11100
C214        C  0.17533624  0.35718137  0.08148646     0.04300
C215        C  0.16210130  0.33417997  0.10029868    -0.12200
C216        C  0.17804961  0.32735834  0.13872801    -0.07800
C217        C  0.20942827  0.34270896  0.15765074     0.07700
C218        C  0.22091039  0.36781590  0.13980732    -0.12900
S219        S  0.15178613  0.35943848  0.52522594    -0.29900
H220        H  0.13825726  0.32280177  0.08516726     0.12000
S221        S  0.23627939  0.33106449  0.20416974    -0.27000
H222        H  0.24349074  0.38117938  0.15559099     0.09200
H223        H  0.29790506  0.48189313  0.08286714     0.27700
H224        H  0.13023165  0.33235568  0.51982218     0.22500
H225        H  0.22560848  0.29847550  0.20084206     0.27800
H226        H  0.15655101  0.41652760  0.11207599     0.16600
C227        C  0.13375718  0.24513473  0.05088365    -0.10700
C228        C  0.16710982  0.23288040  0.05892537     0.15900
C229        C  0.18953271  0.23409404  0.09644842     0.02800
C230        C  0.17790088  0.24662918  0.12484220    -0.15000
C231        C  0.14525261  0.26052039  0.11659181    -0.09900
C232        C  0.12285360  0.25962906  0.07913272     0.09500
C233        C  0.17814378  0.22092972  0.02716800     0.10500
S234        S  0.23405106  0.22299277  0.10962851    -0.24200
H235        H  0.19554589  0.24842550  0.15336175     0.20800
S236        S  0.08208359  0.28015947  0.06641244    -0.29900
H237        H  0.11678062  0.24459387  0.02199581     0.11100
C238        C  0.18819480  0.18832502  0.02467559     0.04300
C239        C  0.19823487  0.17853055  0.99388720    -0.12200
C240        C  0.19290721  0.19914304  0.46206272    -0.07800
C241        C  0.18267618  0.23168232  0.46469917     0.07700
C242        C  0.17417955  0.24163615  0.49633023    -0.12900
S243        S  0.18610822  0.15864193  0.05918818    -0.29900
H244        H  0.20559467  0.15344568  0.99157925     0.12000
S245        S  0.17976726  0.26179709  0.42908095    -0.27000
H246        H  0.16666293  0.26672399  0.49844355     0.09200
H247        H  0.07286255  0.27486907  0.02725535     0.27700
H248        H  0.19866908  0.13200616  0.04376001     0.22500
H249        H  0.17107386  0.24038832  0.39813325     0.27800
H250        H  0.23839202  0.23146174  0.07520999     0.16600
C251        C  0.30138346  0.23175217  0.45518873    -0.10700
C252        C  0.32508586  0.21612841  0.48586327     0.15900
C253        C  0.31646151  0.18599661  0.49826096     0.02800
C254        C  0.28449641  0.17224503  0.47938520    -0.15000
C255        C  0.26173334  0.18729972  0.44746349    -0.09900
C256        C  0.27061395  0.21723633  0.43519702     0.09500
C257        C  0.36245581  0.23274503  0.00761475     0.10500
S258        S  0.34789118  0.16503107  0.04293013    -0.24200
H259        H  0.27757868  0.14938764  0.48901141     0.20800
S260        S  0.24425581  0.23777635  0.39345438    -0.29900
H261        H  0.30758857  0.25502235  0.44573846     0.11100
C262        C  0.37909710  0.23934672  0.48071727     0.04300
C263        C  0.40590122  0.26125964  0.49419492    -0.12200
C264        C  0.41690526  0.27652816  0.03502943    -0.07800
C265        C  0.39780204  0.26735554  0.05842610     0.07700
C266        C  0.37026339  0.24607433  0.04408228    -0.12900
S267        S  0.37060592  0.22129321  0.43443322    -0.29900
H268        H  0.42049207  0.26844637  0.47633049     0.12000
S269        S  0.40637157  0.28224473  0.10607446    -0.27000
H270        H  0.35404435  0.24087223  0.06085663     0.09200
H271        H  0.23280942  0.20947860  0.37213569     0.27700
H272        H  0.39819394  0.23524183  0.42626631     0.22500
H273        H  0.43400996  0.30224549  0.10784632     0.27800
H274        H  0.37870909  0.17648264  0.04000900     0.16600
N275        N  0.23346833  0.17313651  0.93138111    -0.02800
C276        C  0.20332574  0.18641909  0.93094718    -0.00200
C277        C  0.17724910  0.17427283  0.90077930    -0.23100
C278        C  0.19190960  0.15283087  0.88211013    -0.23300
C279        C  0.22649336  0.15207652  0.90182955    -0.00300
H280        H  0.15022268  0.17802398  0.89522606     0.13500
H281        H  0.17824365  0.13679635  0.85927648     0.13500
N282        N  0.13442956  0.28136786  0.64068609    -0.02800
C283        C  0.15422316  0.30782439  0.65444698    -0.00200
C284        C  0.15143534  0.31708559  0.68881017    -0.23100
C285        C  0.12997287  0.29530444  0.69687059    -0.23300
C286        C  0.11944225  0.27364057  0.66692039    -0.00300
H287        H  0.16242393  0.33829787  0.70541491     0.13500
H288        H  0.12054554  0.29689826  0.72055408     0.13500
N289        N  0.24909763  0.49218624  0.50138961    -0.02800
C290        C  0.23461358  0.49012604  0.52912285    -0.00200
C291        C  0.22332146  0.52056772  0.53612773    -0.23100
C292        C  0.23259056  0.04135074  0.01163384    -0.23300
C293        C  0.24837801  0.02298561  0.99102467    -0.00300
H294        H  0.21009613  0.52644873  0.55595617     0.13500
H295        H  0.22682258  0.06713754  0.00886989     0.13500
N296        N  0.43575163  0.30314268  0.53798642    -0.02800
C297        C  0.42825002  0.33243633  0.52052424    -0.00200
C298        C  0.45762026  0.35039147  0.52727448    -0.23100
C299        C  0.48401718  0.33132384  0.54902775    -0.23300
C300        C  0.47000429  0.30235452  0.55512175    -0.00300
H301        H  0.45943078  0.37535785  0.51926545     0.13500
H302        H  0.51029975  0.33869020  0.56117724     0.13500
N303        N  0.19630326  0.00423117  0.79194481    -0.02800
C304        C  0.19086181  0.47422328  0.77181252    -0.00200
C305        C  0.22313910  0.46288545  0.77456710    -0.23100
C306        C  0.24609336  0.48274823  0.79970638    -0.23300
C307        C  0.23007930  0.00893766  0.80954122    -0.00300
H308        H  0.22928330  0.44079152  0.76216114     0.13500
H309        H  0.27347205  0.47948081  0.81012591     0.13500
N310        N  0.98801831  0.13695495  0.68810113    -0.02800
C311        C  0.45692642  0.12407381  0.68474396    -0.00200
C312        C  0.43309233  0.13425339  0.65138900    -0.23100
C313        C  0.44977836  0.15367813  0.63350775    -0.23300
C314        C  0.98316058  0.15581256  0.65701881    -0.00300
H315        H  0.40587957  0.13039452  0.64267364     0.13500
H316        H  0.43780973  0.16811303  0.60856921     0.13500
N317        N  0.39218165  0.03612734  0.89956219    -0.02800
C318        C  0.41131776  0.51263411  0.90388448    -0.00200
C319        C  0.41452629  0.50272170  0.93993937    -0.23100
C320        C  0.39159654  0.52108518  0.95115865    -0.23300
C321        C  0.37742793  0.04233720  0.92643622    -0.00300
H322        H  0.42925195  0.48220899  0.95485531     0.13500
H323        H  0.38515541  0.51733225  0.97657052     0.13500
N324        N  0.98476265  0.33330928  0.72369791    -0.02800
C325        C  0.45977964  0.34200480  0.73810826    -0.00200
C326        C  0.43359390  0.31981435  0.72857326    -0.23100
C327        C  0.44240701  0.29602926  0.70750403    -0.23300
C328        C  0.97419193  0.30456348  0.70564330    -0.00300
H329        H  0.41099149  0.32043148  0.73696089     0.13500
H330        H  0.42789743  0.27443223  0.69613238     0.13500
In331      In  0.27550339  0.06445429  0.90448378     1.36900
C332        C  0.25918637  0.03683712  0.96056379     0.78300
O333        O  0.32479321  0.06955446  0.88999238    -0.60200
O334        O  0.32653279  0.04857041  0.94198059    -0.51100
C335        C  0.24504081  0.03046556  0.84211875     0.70900
O336        O  0.23062926  0.03688895  0.86624242    -0.45900
C337        C  0.24798215  0.12392306  0.89906667     0.75700
O338        O  0.26531753  0.02017924  0.93505826    -0.57800
O339        O  0.27657708  0.11748097  0.92297415    -0.47900
O340        O  0.26189874  0.06706399  0.95746454    -0.54200
C341        C  0.34242778  0.05493869  0.91947959     0.85800
O342        O  0.27443606  0.04213473  0.84938014    -0.56100
O343        O  0.23656393  0.10176508  0.87512221    -0.59400
In344      In  0.02127757  0.24551857  0.64669481     1.36900
C345        C  0.99240165  0.28342568  0.68647215     0.78300
O346        O  0.01876481  0.28531541  0.60555915    -0.60200
O347        O  0.47653862  0.25356782  0.59266039    -0.51100
C348        C  0.08731977  0.25536460  0.66051712     0.70900
O349        O  0.07355174  0.25427803  0.68599728    -0.45900
C350        C  0.00428148  0.18395607  0.65424998     0.75700
O351        O  0.02295005  0.28681426  0.68833826    -0.57800
O352        O  0.00300198  0.19594855  0.62286854    -0.47900
O353        O  0.47770336  0.25955612  0.66598474    -0.54200
C354        C  0.48903421  0.27897262  0.58419217     0.85800
O355        O  0.06876129  0.24493071  0.62874782    -0.56100
O356        O  0.01959206  0.20140076  0.68234259    -0.59400
C357        C  0.46542025  0.46830189  0.85379308    -0.10700
C358        C  0.44065789  0.44868702  0.82864870     0.15900
C359        C  0.40642575  0.45138536  0.82750203     0.02800
C360        C  0.39788880  0.47277063  0.85213200    -0.15000
C361        C  0.42250052  0.49238463  0.87731112    -0.09900
C362        C  0.45664092  0.49030417  0.87801896     0.09500
C363        C  0.45136394  0.42272988  0.80732515     0.10500
S364        S  0.37270125  0.42707622  0.79660779    -0.24200
H365        H  0.37178006  0.47377651  0.85209971     0.20800
S366        S  0.49014963  0.51408387  0.90987679    -0.29900
H367        H  0.49179461  0.46591651  0.85510137     0.11100
C368        C  0.45530472  0.42837405  0.77190827     0.04300
C369        C  0.46015595  0.40174321  0.75032087    -0.12200
C370        C  0.46126424  0.36983442  0.76385157    -0.07800
C371        C  0.45995808  0.36472001  0.80059110     0.07700
C372        C  0.45460729  0.39109734  0.82166501    -0.12900
S373        S  0.45169692  0.46913676  0.75331994    -0.29900
H374        H  0.46140376  0.40555550  0.72224431     0.12000
S375        S  0.46435238  0.32501153  0.82192930    -0.27000
H376        H  0.45208106  0.38687278  0.84915151     0.09200
H377        H  0.46938452  0.53987406  0.91448910     0.27700
H378        H  0.45782475  0.46089198  0.71957444     0.22500
H379        H  0.48580339  0.31195701  0.80300447     0.27800
H380        H  0.38662888  0.42420457  0.76719978     0.16600
C381        C  0.41666736  0.09508617  0.83848117    -0.10700
C382        C  0.40701987  0.07843791  0.80380996     0.15900
C383        C  0.38665709  0.05034141  0.79967460     0.02800
C384        C  0.37859552  0.03844561  0.83078091    -0.15000
C385        C  0.38978212  0.05427054  0.86597376    -0.09900
C386        C  0.40779765  0.08365211  0.86911929     0.09500
C387        C  0.42011293  0.09014870  0.77348421     0.10500
S388        S  0.37122027  0.02798088  0.75593949    -0.24200
H389        H  0.36517718  0.01564044  0.82821565     0.20800
S390        S  0.42394115  0.10518872  0.91321663    -0.29900
H391        H  0.43229666  0.11659738  0.84213373     0.11100
C392        C  0.41148863  0.12127834  0.75744522     0.04300
C393        C  0.42506064  0.13175230  0.72973822    -0.12200
C394        C  0.44652389  0.11163428  0.71667204    -0.07800
C395        C  0.45450345  0.08012161  0.73213451     0.07700
C396        C  0.44201247  0.07011338  0.76095928    -0.12900
S397        S  0.38172753  0.14712038  0.77074700    -0.29900
H398        H  0.41828011  0.15563424  0.71740618     0.12000
S399        S  0.47857928  0.05082956  0.71502732    -0.27000
H400        H  0.44869007  0.04612555  0.77307824     0.09200
H401        H  0.39276071  0.10476367  0.92037288     0.27700
H402        H  0.38310827  0.17382055  0.74804803     0.22500
H403        H  0.46671624  0.06146500  0.67740169     0.27800
H404        H  0.36881921  0.05495644  0.73232304     0.16600
C405        C  0.14108560  0.07895397  0.76539087    -0.10700
C406        C  0.11071976  0.06813825  0.76974200     0.15900
C407        C  0.11019833  0.03734120  0.78616935     0.02800
C408        C  0.13970263  0.01774557  0.79659219    -0.15000
C409        C  0.16934726  0.02756745  0.78950531    -0.09900
C410        C  0.17015868  0.05894811  0.77448565     0.09500
C411        C  0.07913601  0.08667653  0.74998746     0.10500
S412        S  0.07193899  0.02005956  0.79067487    -0.24200
H413        H  0.13883888  0.99368842  0.80781784     0.20800
S414        S  0.20637998  0.07211810  0.76180664    -0.29900
H415        H  0.14107087  0.10218270  0.75194055     0.11100
C416        C  0.06512426  0.11044881  0.76813448     0.04300
C417        C  0.03519711  0.12727474  0.74735447    -0.12200
C418        C  0.01997033  0.12153755  0.70854875    -0.07800
C419        C  0.03488990  0.09852613  0.69028470     0.07700
C420        C  0.06407364  0.08127947  0.71121290    -0.12900
S421        S  0.08533623  0.11904618  0.81763105    -0.29900
H422        H  0.02350998  0.14478660  0.76114524     0.12000
S423        S  0.01580972  0.08977114  0.64053531    -0.27000
H424        H  0.07531746  0.06335514  0.69741472     0.09200
H425        H  0.19534927  0.10438439  0.75267079     0.27700
H426        H  0.06323951  0.14454204  0.81998159     0.22500
H427        H  0.54000023  0.06539008  0.63864058     0.27800
H428        H  0.05469666  0.04946841  0.79137414     0.16600
C429        C  0.10071578  0.44162913  0.72596228    -0.10700
C430        C  0.10405579  0.41082720  0.74305592     0.15900
C431        C  0.13683646  0.39990587  0.76504666     0.02800
C432        C  0.16412946  0.42133060  0.77368731    -0.15000
C433        C  0.16057205  0.45282832  0.75851705    -0.09900
C434        C  0.12889584  0.46218216  0.73225642     0.09500
C435        C  0.07316846  0.39087868  0.73825198     0.10500
S436        S  0.14597127  0.35888625  0.78265495    -0.24200
H437        H  0.18858849  0.41318907  0.79261186     0.20800
S438        S  0.12297604  0.49890694  0.70473337    -0.29900
H439        H  0.07602347  0.44967631  0.70752022     0.11100
C440        C  0.06444439  0.38025344  0.76969647     0.04300
C441        C  0.03671332  0.35946376  0.76413645    -0.12200
C442        C  0.01566344  0.35097492  0.72778234    -0.07800
C443        C  0.02297268  0.36335815  0.69621822     0.07700
C444        C  0.05215032  0.38242846  0.70177377    -0.12900
S445        S  0.08689098  0.39496896  0.81676571    -0.29900
H446        H  0.03038992  0.35075033  0.78818264     0.12000
S447        S  0.99390573  0.35701145  0.64906341    -0.27000
H448        H  0.05837860  0.39127523  0.67768686     0.09200
H449        H  0.15975629  0.00726815  0.70717653     0.28100
H450        H  0.07005298  0.37565087  0.83589811     0.22500
H451        H  0.01269722  0.37380497  0.62996592     0.27800
H452        H  0.11793797  0.34441131  0.75575540     0.16600
C453        C  0.28057277  0.41176412  0.98158537    -0.10700
C454        C  0.31259639  0.41594317  0.48512385     0.15900
C455        C  0.32609032  0.44686926  0.49816291     0.02800
C456        C  0.30417847  0.47235752  0.49987546    -0.15000
C457        C  0.26904385  0.46747764  0.49056573    -0.09900
C458        C  0.25824137  0.43714380  0.98336588     0.09500
C459        C  0.33563725  0.38775715  0.48701820     0.10500
S460        S  0.37121250  0.45473168  0.51598500    -0.24200
H461        H  0.31484971  0.49552913  0.51168009     0.20800
S462        S  0.21331812  0.42868339  0.96843726    -0.29900
H463        H  0.27053739  0.38771017  0.97276491     0.11100
C464        C  0.34219581  0.36525627  0.51676161     0.04300
C465        C  0.37121133  0.34528211  0.52509669    -0.12200
C466        C  0.39345035  0.34659151  0.50383937    -0.07800
C467        C  0.38450705  0.36647730  0.47134239     0.07700
C468        C  0.35595542  0.38709270  0.46351459    -0.12900
S469        S  0.31603521  0.36452826  0.54700079    -0.29900
H470        H  0.37811966  0.33103509  0.55029580     0.12000
S471        S  0.40865115  0.36522321  0.94253474    -0.27000
H472        H  0.35071135  0.40406188  0.44034672     0.09200
H473        H  0.20235839  0.46119944  0.96144528     0.27700
H474        H  0.33230106  0.33789068  0.56919060     0.22500
H475        H  0.42292862  0.33624093  0.44783964     0.27800
H476        H  0.38061070  0.42483713  0.53462119     0.16600
C477        C  0.24231122  0.40862375  0.58069750    -0.10700
C478        C  0.20840530  0.40425710  0.57945396     0.15900
C479        C  0.18448123  0.42942840  0.56423559     0.02800
C480        C  0.19366942  0.45578863  0.54645768    -0.15000
C481        C  0.22729991  0.45996916  0.54685436    -0.09900
C482        C  0.25230666  0.43694859  0.56643209     0.09500
C483        C  0.19878134  0.37455225  0.59615910     0.10500
S484        S  0.14262527  0.43087145  0.56913105    -0.24200
H485        H  0.17451153  0.47406136  0.53346235     0.20800
S486        S  0.29737217  0.44381635  0.57855810    -0.29900
H487        H  0.26140948  0.39052514  0.59438414     0.11100
C488        C  0.17077069  0.35534502  0.57577173     0.04300
C489        C  0.15728684  0.33300524  0.59509983    -0.12200
C490        C  0.17300808  0.32691395  0.63373848    -0.07800
C491        C  0.20439650  0.34230585  0.65245195     0.07700
C492        C  0.21625594  0.36668313  0.63396706    -0.12900
S493        S  0.15629222  0.36203961  0.03105027    -0.29900
H494        H  0.13342036  0.32158381  0.58019060     0.12000
S495        S  0.23070550  0.33167791  0.69956633    -0.27000
H496        H  0.23888405  0.38009081  0.64949129     0.09200
H497        H  0.29522653  0.47795980  0.57730062     0.27700
H498        H  0.13587744  0.33408664  0.02495399     0.22500
H499        H  0.21983233  0.29919051  0.69727679     0.27800
H500        H  0.15217145  0.41540332  0.60444947     0.16600
C501        C  0.12933799  0.24320616  0.54790578    -0.10700
C502        C  0.16284826  0.23132584  0.55625856     0.15900
C503        C  0.18525738  0.23320922  0.59371926     0.02800
C504        C  0.17347007  0.24613123  0.62180703    -0.15000
C505        C  0.14068522  0.25978476  0.61316781    -0.09900
C506        C  0.11829301  0.25818205  0.57575447     0.09500
C507        C  0.17415351  0.21954357  0.52470479     0.10500
S508        S  0.22991060  0.22259558  0.60708020    -0.24200
H509        H  0.19107747  0.24849291  0.65027620     0.20800
S510        S  0.07751306  0.27874939  0.56240882    -0.29900
H511        H  0.11244412  0.24223590  0.51900121     0.11100
C512        C  0.18394351  0.18691584  0.52191986     0.04300
C513        C  0.19384282  0.17725097  0.49099339    -0.12200
C514        C  0.19705110  0.20018162  0.96466625    -0.07800
C515        C  0.18627617  0.23262535  0.96678388     0.07700
C516        C  0.17772050  0.24276206  0.99835572    -0.12900
S517        S  0.18186148  0.15714586  0.55633617    -0.29900
H518        H  0.20093988  0.15213392  0.48837288     0.12000
S519        S  0.18301638  0.26248452  0.93074186    -0.27000
H520        H  0.16992527  0.26780580  0.00014068     0.09200
H521        H  0.06745769  0.27102981  0.52372900     0.27700
H522        H  0.19375030  0.13042275  0.54035702     0.22500
H523        H  0.17641360  0.24087578  0.90011667     0.27800
H524        H  0.23416701  0.23039135  0.57243353     0.16600
C525        C  0.30630260  0.23124473  0.95809476    -0.10700
C526        C  0.32933298  0.21624920  0.98980135     0.15900
C527        C  0.32014618  0.18657342  0.00271516     0.02800
C528        C  0.28831635  0.17269591  0.98339359    -0.15000
C529        C  0.26611980  0.18724631  0.95072829    -0.09900
C530        C  0.27553724  0.21673180  0.93796350     0.09500
C531        C  0.35840388  0.23234700  0.50299025     0.10500
S532        S  0.34518039  0.16368628  0.53710538    -0.24200
H533        H  0.28097761  0.15021937  0.99343254     0.20800
S534        S  0.24953887  0.23700056  0.89582072    -0.29900
H535        H  0.31288981  0.25417037  0.94821702     0.11100
C536        C  0.38420450  0.23898081  0.98634052     0.04300
C537        C  0.41077126  0.26113962  0.00002146    -0.12200
C538        C  0.41311566  0.27583220  0.52977929    -0.07800
C539        C  0.39477742  0.26621361  0.55379826     0.07700
C540        C  0.36726177  0.24488363  0.53988092    -0.12900
S541        S  0.37748015  0.21948813  0.94110282    -0.29900
H542        H  0.42606959  0.26781866  0.98272888     0.12000
S543        S  0.40365297  0.28130092  0.60140624    -0.27000
H544        H  0.35166042  0.23928406  0.55723668     0.09200
H545        H  0.23845993  0.20856812  0.87464563     0.27700
H546        H  0.40570755  0.23297575  0.93382632     0.22500
H547        H  0.42936630  0.30332435  0.60191861     0.27800
H548        H  0.37543758  0.17493472  0.53250050     0.16600
N549        N  0.23371482  0.67499648  0.43182847    -0.02800
C550        C  0.20370387  0.68849619  0.43152164    -0.00200
C551        C  0.17743875  0.67629472  0.40158713    -0.23100
C552        C  0.19185115  0.65462390  0.38291389    -0.23300
C553        C  0.22647785  0.65378799  0.40240873    -0.00300
H554        H  0.15045452  0.68016806  0.39622284     0.13500
H555        H  0.17799851  0.63849631  0.36027587     0.13500
N556        N  0.13623191  0.78073975  0.14054701    -0.02800
C557        C  0.15599030  0.80712593  0.15488228    -0.00200
C558        C  0.15380768  0.81534072  0.18978671    -0.23100
C559        C  0.13295188  0.79293973  0.19775606    -0.23300
C560        C  0.12189754  0.77206677  0.16709254    -0.00300
H561        H  0.16481597  0.83627457  0.20691073     0.13500
H562        H  0.12406565  0.79378166  0.22187850     0.13500
N563        N  0.25053620  0.99128477  0.00164436    -0.02800
C564        C  0.23613517  0.98982411  0.02951103    -0.00200
C565        C  0.22461516  0.02036430  0.03575828    -0.23100
C566        C  0.23157631  0.54205505  0.51262376    -0.23300
C567        C  0.24727441  0.52406992  0.49161830    -0.00300
H568        H  0.21135647  0.02661642  0.05545055     0.13500
H569        H  0.22602246  0.56789433  0.51050354     0.13500
N570        N  0.43843064  0.80291503  0.03795492    -0.02800
C571        C  0.43077169  0.83198571  0.02000627    -0.00200
C572        C  0.45996857  0.85011757  0.02645373    -0.23100
C573        C  0.48646675  0.83147492  0.04870912    -0.23300
C574        C  0.47265903  0.80253889  0.05526654    -0.00300
H575        H  0.46152727  0.87507044  0.01814864     0.13500
H576        H  0.51263207  0.83915633  0.06097260     0.13500
N577        N  0.19332344  0.50436151  0.29492148    -0.02800
C578        C  0.19021089  0.97458828  0.27231710    -0.00200
C579        C  0.22250013  0.96329485  0.27501717    -0.23100
C580        C  0.24547165  0.98358666  0.29951993    -0.23300
C581        C  0.22719646  0.50917598  0.31189644    -0.00300
H582        H  0.22868326  0.94117669  0.26269042     0.13500
H583        H  0.27288573  0.98058455  0.30964196     0.13500
N584        N  0.98731899  0.63903215  0.18922540    -0.02800
C585        C  0.45577600  0.62775312  0.18629956    -0.00200
C586        C  0.43208313  0.63864025  0.15325689    -0.23100
C587        C  0.44930153  0.65736258  0.13530270    -0.23300
C588        C  0.98316410  0.65765195  0.15808648    -0.00300
H589        H  0.40476295  0.63557012  0.14472074     0.13500
H590        H  0.43770245  0.67204136  0.11047374     0.13500
N591        N  0.39017576  0.53624527  0.39818610    -0.02800
C592        C  0.41106189  0.01170422  0.40679704    -0.00200
C593        C  0.41239782  0.00183775  0.44234156    -0.23100
C594        C  0.38964732  0.02124659  0.45261421    -0.23300
C595        C  0.37547478  0.54110800  0.42533518    -0.00300
H596        H  0.42563694  0.98068985  0.45738515     0.13500
H597        H  0.38195105  0.01782669  0.47727395     0.13500
N598        N  0.98502364  0.83287710  0.22456398    -0.02800
C599        C  0.46123941  0.84055762  0.24188305    -0.00200
C600        C  0.43633276  0.81710723  0.23392041    -0.23100
C601        C  0.44534907  0.79387547  0.21233307    -0.23300
C602        C  0.97548186  0.80371172  0.20709897    -0.00300
H603        H  0.41433178  0.81670122  0.24338082     0.13500
H604        H  0.43168903  0.77168448  0.20167135     0.13500
In605      In  0.27444460  0.56568850  0.40525876     1.36900
C606        C  0.25812718  0.53821357  0.46135527     0.78300
O607        O  0.32354742  0.57007335  0.39024613    -0.60200
O608        O  0.32536806  0.54882798  0.44213230    -0.51100
C609        C  0.24266244  0.53133088  0.34368560     0.70900
O610        O  0.22865782  0.53873643  0.36789176    -0.45900
C611        C  0.24774540  0.62545383  0.39969817     0.75700
O612        O  0.26395812  0.52164952  0.43563147    -0.57800
O613        O  0.27612877  0.61869468  0.42384171    -0.47900
O614        O  0.26119865  0.56844450  0.45859013    -0.54200
C615        C  0.34106878  0.55489267  0.41935938     0.85800
O616        O  0.27221715  0.54245801  0.35028604    -0.56100
O617        O  0.23623033  0.60343715  0.37559056    -0.59400
In618      In  0.02314952  0.74600011  0.14721709     1.36900
C619        C  0.99381569  0.78348788  0.18714642     0.78300
O620        O  0.02032422  0.78655316  0.10706026    -0.60200
O621        O  0.48009639  0.75339330  0.09222866    -0.51100
C622        C  0.08937201  0.75447470  0.16059146     0.70900
O623        O  0.07573127  0.75357828  0.18618420    -0.45900
C624        C  0.00519806  0.68494275  0.15507383     0.75700
O625        O  0.02405405  0.78779369  0.18825716    -0.57800
O626        O  0.00354556  0.69688765  0.12355467    -0.47900
O627        O  0.47962400  0.76014267  0.16751913    -0.54200
C628        C  0.49160373  0.77992338  0.08519137     0.85800
O629        O  0.07043014  0.74455456  0.12878711    -0.56100
O630        O  0.02156586  0.70198890  0.18310072    -0.59400
C631        C  0.45900602  0.97334793  0.34574333    -0.10700
C632        C  0.43732889  0.94733806  0.32970089     0.15900
C633        C  0.40667729  0.94387723  0.33790120     0.02800
C634        C  0.39937562  0.96505579  0.36353642    -0.15000
C635        C  0.42147869  0.99037444  0.38056842    -0.09900
C636        C  0.45131917  0.99502511  0.37103698     0.09500
C637        C  0.44866311  0.92185543  0.30818053     0.10500
S638        S  0.37593304  0.91275733  0.31674170    -0.24200
H639        H  0.37601484  0.96196400  0.37006752     0.20800
S640        S  0.48062362  0.02767408  0.39022271    -0.29900
H641        H  0.48249213  0.97613497  0.33944048     0.11100
C642        C  0.44866975  0.92672339  0.27096371     0.04300
C643        C  0.45526055  0.90015178  0.25036588    -0.12200
C644        C  0.46161939  0.86899840  0.26641481    -0.07800
C645        C  0.46369438  0.86480777  0.30447125     0.07700
C646        C  0.45711009  0.89116946  0.32480604    -0.12900
S647        S  0.43760758  0.96599221  0.24885092    -0.29900
H648        H  0.45358990  0.90317883  0.22113610     0.12000
S649        S  0.47352208  0.82621453  0.32841846    -0.27000
H650        H  0.45753526  0.88753595  0.35358227     0.09200
H651        H  0.47228815  0.03247772  0.42334372     0.27700
H652        H  0.44370128  0.95781773  0.21506630     0.22500
H653        H  0.49256601  0.81328597  0.30666385     0.27800
H654        H  0.38290336  0.91108782  0.28246454     0.16600
C655        C  0.41864914  0.59562531  0.34095663    -0.10700
C656        C  0.40599371  0.58158447  0.30488450     0.15900
C657        C  0.38253064  0.55575440  0.29903725     0.02800
C658        C  0.37441967  0.54309208  0.32974348    -0.15000
C659        C  0.38849777  0.55615014  0.36616349    -0.09900
C660        C  0.40965796  0.58361310  0.37124406     0.09500
C661        C  0.41912326  0.59343904  0.27472671     0.10500
S662        S  0.36309120  0.53719345  0.25346267    -0.24200
H663        H  0.35859110  0.52171377  0.32573857     0.20800
S664        S  0.42929195  0.60165528  0.41698344    -0.29900
H665        H  0.43658863  0.61544426  0.34584777     0.11100
C666        C  0.41310472  0.62563844  0.26133709     0.04300
C667        C  0.42658021  0.63613347  0.23357995    -0.12200
C668        C  0.44543496  0.61506349  0.21804839    -0.07800
C669        C  0.45085712  0.58257815  0.23091110     0.07700
C670        C  0.43839739  0.57238025  0.25966195    -0.12900
S671        S  0.38675529  0.65296618  0.27815046    -0.29900
H672        H  0.42175883  0.66081477  0.22315655     0.12000
S673        S  0.47176668  0.55256773  0.21069285    -0.27000
H674        H  0.44303169  0.54757139  0.26975627     0.09200
H675        H  0.39956811  0.60098632  0.42712065     0.27700
H676        H  0.38932551  0.68008801  0.25660201     0.22500
H677        H  0.45973972  0.56514622  0.17390315     0.27800
H678        H  0.36304001  0.56538588  0.23240835     0.16600
C679        C  0.13802818  0.57908601  0.26866068    -0.10700
C680        C  0.10793358  0.56857521  0.27394378     0.15900
C681        C  0.10772708  0.53801324  0.29105969     0.02800
C682        C  0.13715411  0.51824022  0.30085107    -0.15000
C683        C  0.16643011  0.52775100  0.29272074    -0.09900
C684        C  0.16696917  0.55895244  0.27718285     0.09500
C685        C  0.07625309  0.58688705  0.25376951     0.10500
S686        S  0.07001848  0.52131022  0.29761625    -0.24200
H687        H  0.13649845  0.49431888  0.31252166     0.20800
S688        S  0.20252808  0.57160957  0.26296017    -0.29900
H689        H  0.13778448  0.60213996  0.25476105     0.11100
C690        C  0.06216502  0.61117996  0.27121199     0.04300
C691        C  0.03308021  0.62873047  0.24951363    -0.12200
C692        C  0.01867842  0.62307444  0.21056707    -0.07800
C693        C  0.03330697  0.59911884  0.19320634     0.07700
C694        C  0.06173772  0.58132503  0.21494121    -0.12900
S695        S  0.08122748  0.61959882  0.32092558    -0.29900
H696        H  0.02141597  0.64679309  0.26268818     0.12000
S697        S  0.01495757  0.59011167  0.14345550    -0.27000
H698        H  0.07304059  0.56305730  0.20161114     0.09200
H699        H  0.19078091  0.60336416  0.25184397     0.27700
H700        H  0.05801145  0.64412034  0.32302619     0.22500
H701        H  0.53355791  0.56164139  0.14351324     0.27800
H702        H  0.05212202  0.55067792  0.29607130     0.16600
C703        C  0.09954170  0.94332206  0.22564932    -0.10700
C704        C  0.10268386  0.91201862  0.24144877     0.15900
C705        C  0.13546488  0.90028429  0.26222783     0.02800
C706        C  0.16301903  0.92142884  0.27164781    -0.15000
C707        C  0.15967548  0.95351353  0.25814920    -0.09900
C708        C  0.12798757  0.96361918  0.23242498     0.09500
C709        C  0.07168702  0.89239451  0.23711960     0.10500
S710        S  0.14404963  0.85856650  0.27742169    -0.24200
H711        H  0.18747344  0.91260291  0.28990128     0.20800
S712        S  0.12241644  0.00086265  0.20587875    -0.29900
H713        H  0.07482399  0.95196511  0.20788287     0.11100
C714        C  0.06408914  0.88107750  0.26898905     0.04300
C715        C  0.03667376  0.86003451  0.26398440    -0.12200
C716        C  0.01505419  0.85165549  0.22787691    -0.07800
C717        C  0.02112271  0.86477836  0.19595650     0.07700
C718        C  0.04980655  0.88444206  0.20085523    -0.12900
S719        S  0.08789341  0.89489433  0.31606530    -0.29900
H720        H  0.03126084  0.85076181  0.28832896     0.12000
S721        S  0.99124731  0.85824411  0.14927773    -0.27000
H722        H  0.05514242  0.89385771  0.17647781     0.09200
H723        H  0.15680934  0.50738353  0.21040590     0.28100
H724        H  0.07158317  0.87537294  0.33557850     0.22500
H725        H  0.00965524  0.87464713  0.12944011     0.27800
H726        H  0.11601416  0.84529678  0.24926644     0.16600
C727        C  0.28048798  0.91273371  0.47592157    -0.10700
C728        C  0.31503376  0.91534365  0.98642101     0.15900
C729        C  0.32800153  0.94665684  0.99830016     0.02800
C730        C  0.30571663  0.97185542  0.99989819    -0.15000
C731        C  0.27074169  0.96638790  0.99149475    -0.09900
C732        C  0.25848252  0.93827225  0.47820348     0.09500
C733        C  0.33844326  0.88746149  0.98858995     0.10500
S734        S  0.37294959  0.95549284  0.01454314    -0.24200
H735        H  0.31603520  0.99539777  0.01072374     0.20800
S736        S  0.21337578  0.93066860  0.46230221    -0.29900
H737        H  0.27006495  0.88903245  0.46595484     0.11100
C738        C  0.34619855  0.86587595  0.01930171     0.04300
C739        C  0.37505471  0.84584962  0.02695450    -0.12200
C740        C  0.39599965  0.84615492  0.00421406    -0.07800
C741        C  0.38607416  0.86532398  0.97114710     0.07700
C742        C  0.35761378  0.88599770  0.96389330    -0.12900
S743        S  0.32189882  0.86647177  0.05149980    -0.29900
H744        H  0.38304803  0.83226135  0.05295411     0.12000
S745        S  0.41217142  0.86872117  0.44153294    -0.27000
H746        H  0.35148218  0.90240461  0.93998840     0.09200
H747        H  0.20316292  0.96347164  0.45652242     0.27700
H748        H  0.33854681  0.84003182  0.07381015     0.22500
H749        H  0.42385573  0.83442853  0.94717589     0.27800
H750        H  0.38358376  0.92592024  0.03351002     0.16600
C751        C  0.24365177  0.90926937  0.08264443    -0.10700
C752        C  0.20961726  0.90492706  0.08090998     0.15900
C753        C  0.18563650  0.92985472  0.06494226     0.02800
C754        C  0.19502411  0.95600818  0.04706781    -0.15000
C755        C  0.22877688  0.96009508  0.04784093    -0.09900
C756        C  0.25375070  0.93731137  0.06800433     0.09500
C757        C  0.19989128  0.87534099  0.09759784     0.10500
S758        S  0.14332001  0.93109722  0.06860239    -0.24200
H759        H  0.17586498  0.97409878  0.03346864     0.20800
S760        S  0.29883867  0.94400505  0.07993417    -0.29900
H761        H  0.26271195  0.89128816  0.09678362     0.11100
C762        C  0.17249940  0.85562078  0.07682645     0.04300
C763        C  0.15911394  0.83293687  0.09584471    -0.12200
C764        C  0.17454492  0.82693966  0.13456079    -0.07800
C765        C  0.20544905  0.84299426  0.15372171     0.07700
C766        C  0.21696361  0.86781694  0.13556693    -0.12900
S767        S  0.15606719  0.86235344  0.52947246    -0.29900
H768        H  0.13560573  0.82107183  0.08056718     0.12000
S769        S  0.23181208  0.83250982  0.20086961    -0.27000
H770        H  0.23917382  0.88165905  0.15137379     0.09200
H771        H  0.29682454  0.97809684  0.07733163     0.27700
H772        H  0.13439919  0.83536601  0.52416343     0.22500
H773        H  0.22213823  0.79963203  0.19800476     0.27800
H774        H  0.15216818  0.91569856  0.10392095     0.16600
C775        C  0.13131654  0.74349015  0.04717601    -0.10700
C776        C  0.16502416  0.73225905  0.05518537     0.15900
C777        C  0.18764891  0.73452018  0.09250583     0.02800
C778        C  0.17583528  0.74681866  0.12086296    -0.15000
C779        C  0.14275037  0.75970197  0.11264529    -0.09900
C780        C  0.12021466  0.75800859  0.07526750     0.09500
C781        C  0.17620980  0.72033214  0.02355482     0.10500
S782        S  0.23255757  0.72520767  0.10527574    -0.24200
H783        H  0.19359760  0.74933312  0.14923528     0.20800
S784        S  0.07907354  0.77785130  0.06225710    -0.29900
H785        H  0.11421983  0.74225695  0.01837634     0.11100
C786        C  0.18733690  0.68799802  0.02176775     0.04300
C787        C  0.19745510  0.67819405  0.99105894    -0.12200
C788        C  0.19770469  0.70255266  0.46524535    -0.07800
C789        C  0.18644472  0.73489280  0.46691593     0.07700
C790        C  0.17772420  0.74515226  0.49833780    -0.12900
S791        S  0.18651576  0.65859271  0.05708461    -0.29900
H792        H  0.20559408  0.65328745  0.98925286     0.12000
S793        S  0.18299949  0.76452891  0.43060017    -0.27000
H794        H  0.16945314  0.77009346  0.49973939     0.09200
H795        H  0.06959267  0.77153219  0.02327535     0.27700
H796        H  0.19926864  0.63200763  0.04177133     0.22500
H797        H  0.17640904  0.74272604  0.40016113     0.27800
H798        H  0.23611071  0.73439012  0.07068317     0.16600
C799        C  0.30722688  0.73233184  0.45748051    -0.10700
C800        C  0.33034086  0.71721362  0.48903316     0.15900
C801        C  0.32086241  0.68788529  0.50238949     0.02800
C802        C  0.28878447  0.67431623  0.48347913    -0.15000
C803        C  0.26651061  0.68893157  0.45090847    -0.09900
C804        C  0.27608388  0.71822533  0.43788266     0.09500
C805        C  0.36104851  0.73198218  0.00297856     0.10500
S806        S  0.34675238  0.66437313  0.03872852    -0.24200
H807        H  0.28128811  0.65204799  0.49378932     0.20800
S808        S  0.24974401  0.73885858  0.39618720    -0.29900
H809        H  0.31395194  0.75510451  0.44740297     0.11100
C810        C  0.38513022  0.73978115  0.48501559     0.04300
C811        C  0.41162688  0.76208530  0.49841846    -0.12200
C812        C  0.41593462  0.77544184  0.03000547    -0.07800
C813        C  0.39713644  0.76621969  0.05372540     0.07700
C814        C  0.36948108  0.74502238  0.03963483    -0.12900
S815        S  0.37810766  0.72020322  0.43976234    -0.29900
H816        H  0.42670878  0.76882369  0.48091079     0.12000
S817        S  0.40589060  0.78127684  0.10133314    -0.27000
H818        H  0.35355986  0.73977489  0.05673554     0.09200
H819        H  0.23767705  0.71061290  0.37504893     0.27700
H820        H  0.40532897  0.73475241  0.43143202     0.22500
H821        H  0.43240562  0.80247300  0.10232367     0.27800
H822        H  0.37738214  0.67534822  0.03483949     0.16600
N823        N  0.23165976  0.67234810  0.92815864    -0.02800
C824        C  0.20146410  0.68551257  0.92765298    -0.00200
C825        C  0.17536082  0.67265692  0.89803561    -0.23100
C826        C  0.19006630  0.65086348  0.87981266    -0.23300
C827        C  0.22470806  0.65062029  0.89926829    -0.00300
H828        H  0.14832889  0.67609373  0.89274528     0.13500
H829        H  0.17642454  0.63420389  0.85766856     0.13500
N830        N  0.13926996  0.78406800  0.64479996    -0.02800
C831        C  0.15888278  0.81059890  0.65876210    -0.00200
C832        C  0.15649106  0.81924194  0.69346721    -0.23100
C833        C  0.13555650  0.79695085  0.70161233    -0.23300
C834        C  0.12479934  0.77566876  0.67129926    -0.00300
H835        H  0.16743807  0.84033882  0.71030306     0.13500
H836        H  0.12652257  0.79801835  0.72561505     0.13500
N837        N  0.25236197  0.99362177  0.50349382    -0.02800
C838        C  0.23901640  0.99215646  0.53219258    -0.00200
C839        C  0.22795642  0.02275268  0.53901288    -0.23100
C840        C  0.23266394  0.54337944  0.01464513    -0.23300
C841        C  0.24864064  0.52460113  0.99456693    -0.00300
H842        H  0.21540104  0.02901790  0.55935699     0.13500
H843        H  0.22640432  0.56903324  0.01091222     0.13500
N844        N  0.43994339  0.80535289  0.54120455    -0.02800
C845        C  0.43197086  0.83427382  0.52291483    -0.00200
C846        C  0.46097151  0.85279773  0.52968687    -0.23100
C847        C  0.48759909  0.83457177  0.55246243    -0.23300
C848        C  0.47411394  0.80548852  0.55908832    -0.00300
H849        H  0.46230738  0.87769593  0.52116201     0.13500
H850        H  0.51363351  0.84258636  0.56487134     0.13500
N851        N  0.19337856  0.50109814  0.79404636    -0.02800
C852        C  0.19392325  0.97754666  0.76948467    -0.00200
C853        C  0.22628811  0.96658296  0.77203119    -0.23100
C854        C  0.24912637  0.98658850  0.79718204    -0.23300
C855        C  0.22721302  0.50543537  0.81183370    -0.00300
H856        H  0.23259824  0.94463027  0.75950499     0.13500
H857        H  0.27652854  0.98352130  0.80757878     0.13500
N858        N  0.98965739  0.64017056  0.68860708    -0.02800
C859        C  0.45822692  0.62951108  0.68536069    -0.00200
C860        C  0.43487697  0.64093364  0.65236440    -0.23100
C861        C  0.45255013  0.65957007  0.63486242    -0.23300
C862        C  0.98601999  0.65933661  0.65803323    -0.00300
H863        H  0.40748368  0.63842859  0.64369612     0.13500
H864        H  0.44127427  0.67473247  0.61037609     0.13500
N865        N  0.38767532  0.53669087  0.89274477    -0.02800
C866        C  0.41588183  0.01253674  0.91353310    -0.00200
C867        C  0.41725513  0.00453388  0.94967464    -0.23100
C868        C  0.39330359  0.02368283  0.95804705    -0.23300
C869        C  0.37476212  0.54136357  0.92138836    -0.00300
H870        H  0.43146521  0.98462590  0.96651256     0.13500
H871        H  0.38549246  0.02130171  0.98278432     0.13500
N872        N  0.99063150  0.83489860  0.73085172    -0.02800
C873        C  0.46734052  0.84247173  0.74796869    -0.00200
C874        C  0.44292686  0.81863208  0.74132448    -0.23100
C875        C  0.45156722  0.79533306  0.71957529    -0.23300
C876        C  0.98108928  0.80544219  0.71408198    -0.00300
H877        H  0.42167165  0.81790031  0.75202434     0.13500
H878        H  0.43820110  0.77282332  0.70983276     0.13500
In879      In  0.27371692  0.56288629  0.90493269     1.36900
C880        C  0.25879909  0.53746132  0.96314757     0.78300
O881        O  0.32179544  0.56955884  0.88875511    -0.60200
O882        O  0.32541523  0.54639907  0.94022082    -0.51100
C883        C  0.24254430  0.52744913  0.84386956     0.70900
O884        O  0.22784453  0.53601065  0.86709744    -0.45900
C885        C  0.24622931  0.62227090  0.89748286     0.75700
O886        O  0.26397168  0.51995759  0.93772088    -0.57800
O887        O  0.27469186  0.61617714  0.92183343    -0.47900
O888        O  0.26182060  0.56750064  0.95899582    -0.54200
C889        C  0.34023206  0.55396202  0.91703313     0.85800
O890        O  0.27256593  0.53756010  0.85147712    -0.56100
O891        O  0.23490623  0.59964877  0.87414053    -0.59400
In892      In  0.02640385  0.74838470  0.65139600     1.36900
C893        C  0.99873729  0.78523360  0.69340095     0.78300
O894        O  0.02296366  0.78847500  0.61024054    -0.60200
O895        O  0.48154047  0.75697968  0.59722911    -0.51100
C896        C  0.09258614  0.75752700  0.66490400     0.70900
O897        O  0.07909335  0.75599975  0.69058907    -0.45900
C898        C  0.00830994  0.68687002  0.65645987     0.75700
O899        O  0.02833859  0.79013828  0.69269416    -0.57800
O900        O  0.00712727  0.69979335  0.62558219    -0.47900
O901        O  0.48471512  0.76110604  0.67422661    -0.54200
C902        C  0.49343644  0.78274234  0.58882759     0.85800
O903        O  0.07364311  0.74777817  0.63302083    -0.56100
O904        O  0.02443879  0.70315564  0.68528214    -0.59400
C905        C  0.46407060  0.97490012  0.85233387    -0.10700
C906        C  0.44494346  0.94658548  0.83982191     0.15900
C907        C  0.41656910  0.94055813  0.85173497     0.02800
C908        C  0.40876829  0.96207874  0.87672437    -0.15000
C909        C  0.42790305  0.99023105  0.88941044    -0.09900
C910        C  0.45575525  0.99689365  0.87689171     0.09500
C911        C  0.45644496  0.92209329  0.81722874     0.10500
S912        S  0.38895122  0.90607101  0.83570570    -0.24200
H913        H  0.38695752  0.95725271  0.88568786     0.20800
S914        S  0.48181033  0.03254990  0.89127007    -0.29900
H915        H  0.48598030  0.97952560  0.84352345     0.11100
C916        C  0.45507210  0.92780097  0.77964319     0.04300
C917        C  0.46107962  0.90180949  0.75790020    -0.12200
C918        C  0.46853684  0.87050627  0.77327180    -0.07800
C919        C  0.47272972  0.86566981  0.81178389     0.07700
C920        C  0.46657263  0.89140350  0.83321844    -0.12900
S921        S  0.44314710  0.96732404  0.75850077    -0.29900
H922        H  0.45808263  0.90538352  0.72839052     0.12000
S923        S  0.48473845  0.82696648  0.83501884    -0.27000
H924        H  0.46848304  0.88718955  0.86235952     0.09200
H925        H  0.47343604  0.03961152  0.92393588     0.27700
H926        H  0.45046273  0.96053767  0.72506685     0.22500
H927        H  0.50195185  0.81463950  0.81106840     0.27800
H928        H  0.39273685  0.90400304  0.79979460     0.16600
C929        C  0.41710636  0.59791570  0.83840984    -0.10700
C930        C  0.40501223  0.58457575  0.80192688     0.15900
C931        C  0.38089493  0.55921125  0.79477089     0.02800
C932        C  0.37166117  0.54624395  0.82461492    -0.15000
C933        C  0.38588819  0.55793999  0.86166370    -0.09900
C934        C  0.40737546  0.58526703  0.86794750     0.09500
C935        C  0.41949579  0.59637284  0.77277624     0.10500
S936        S  0.36230611  0.54127684  0.74866811    -0.24200
H937        H  0.35487707  0.52549008  0.81935701     0.20800
S938        S  0.42608220  0.60257473  0.91423004    -0.29900
H939        H  0.43533306  0.61757641  0.84427703     0.11100
C940        C  0.41442727  0.62867016  0.75955041     0.04300
C941        C  0.42864036  0.63878648  0.73222646    -0.12200
C942        C  0.44735832  0.61727709  0.71698267    -0.07800
C943        C  0.45207508  0.58479743  0.72991494     0.07700
C944        C  0.43879962  0.57494888  0.75816279    -0.12900
S945        S  0.38853835  0.65670329  0.77612364    -0.29900
H946        H  0.42456744  0.66357055  0.72197125     0.12000
S947        S  0.47319901  0.55438384  0.71047428    -0.27000
H948        H  0.44276414  0.55006593  0.76816222     0.09200
H949        H  0.39543910  0.60272549  0.92259151     0.27700
H950        H  0.38764656  0.68187607  0.75058240     0.22500
H951        H  0.46242068  0.56702491  0.67369674     0.27800
H952        H  0.36382939  0.56945225  0.72824559     0.16600
C953        C  0.13960237  0.57679050  0.76703015    -0.10700
C954        C  0.10882131  0.56659642  0.77085316     0.15900
C955        C  0.10740226  0.53572813  0.78673250     0.02800
C956        C  0.13653276  0.51559980  0.79745522    -0.15000
C957        C  0.16665453  0.52487367  0.79103178    -0.09900
C958        C  0.16822469  0.55618018  0.77615894     0.09500
C959        C  0.07781324  0.58595586  0.75106409     0.10500
S960        S  0.06848005  0.51902541  0.79011580    -0.24200
H961        H  0.13501802  0.49156146  0.80843055     0.20800
S962        S  0.20482055  0.56851697  0.76366993    -0.29900
H963        H  0.14025440  0.60006102  0.75391630     0.11100
C964        C  0.06401011  0.60975729  0.76940637     0.04300
C965        C  0.03514396  0.62790821  0.74840874    -0.12200
C966        C  0.02065815  0.62333379  0.70930530    -0.07800
C967        C  0.03507264  0.59993123  0.69098747     0.07700
C968        C  0.06331432  0.58151357  0.71204350    -0.12900
S969        S  0.08307356  0.61669837  0.81942904    -0.29900
H970        H  0.02368235  0.64558895  0.76226514     0.12000
S971        S  0.01647714  0.59218215  0.64096018    -0.27000
H972        H  0.07427406  0.56341037  0.69814155     0.09200
H973        H  0.19412508  0.60070865  0.75353215     0.27700
H974        H  0.06105679  0.64215212  0.82213110     0.22500
H975        H  0.54003788  0.56881931  0.63768249     0.27800
H976        H  0.05156911  0.54865808  0.79063026     0.16600
C977        C  0.10355807  0.94505159  0.72507428    -0.10700
C978        C  0.10711860  0.91436614  0.74242515     0.15900
C979        C  0.14008588  0.90327364  0.76359163     0.02800
C980        C  0.16750654  0.92447356  0.77128056    -0.15000
C981        C  0.16373657  0.95600218  0.75620206    -0.09900
C982        C  0.13174875  0.96547531  0.73061920     0.09500
C983        C  0.07631117  0.89485804  0.73939605     0.10500
S984        S  0.14913869  0.86246374  0.78191752    -0.24200
H985        H  0.19213859  0.91625767  0.78972003     0.20800
S986        S  0.12533006  0.00232255  0.70325213    -0.29900
H987        H  0.07866121  0.95321349  0.70728483     0.11100
C988        C  0.06893403  0.88512089  0.77196185     0.04300
C989        C  0.04196585  0.86382467  0.76837424    -0.12200
C990        C  0.02021337  0.85400628  0.73285549    -0.07800
C991        C  0.02583931  0.86590865  0.70011734     0.07700
C992        C  0.05435418  0.88548383  0.70370890    -0.12900
S993        S  0.09242860  0.90131507  0.81800954    -0.29900
H994        H  0.03705212  0.85548555  0.79337259     0.12000
S995        S  0.99550338  0.85826909  0.65397705    -0.27000
H996        H  0.05938548  0.89387602  0.67873261     0.09200
H997        H  0.15748904  0.50328583  0.70865420     0.28100
H998        H  0.07666034  0.88265849  0.83885915     0.22500
H999        H  0.01504587  0.87115035  0.63309527     0.27800
H1000       H  0.12058814  0.84794133  0.75584812     0.16600
C1001       C  0.27972227  0.91036340  0.97522580    -0.10700
C1002       C  0.31591225  0.91723147  0.48753743     0.15900
C1003       C  0.32922899  0.94839495  0.49970582     0.02800
C1004       C  0.30721711  0.97387665  0.50119530    -0.15000
C1005       C  0.27219140  0.96876407  0.49270888    -0.09900
C1006       C  0.25742190  0.93563722  0.97741743     0.09500
C1007       C  0.33910159  0.88911801  0.48951301     0.10500
S1008       S  0.37429925  0.95657062  0.51689355    -0.24200
H1009       H  0.31778893  0.99727157  0.51228526     0.20800
S1010       S  0.21247033  0.92727722  0.96190101    -0.29900
H1011       H  0.26961770  0.88647584  0.96562390     0.11100
C1012       C  0.34587495  0.86670890  0.51937099     0.04300
C1013       C  0.37494173  0.84681841  0.52762704    -0.12200
C1014       C  0.39696268  0.84797651  0.50611132    -0.07800
C1015       C  0.38772389  0.86765747  0.47343497     0.07700
C1016       C  0.35919155  0.88830530  0.46575382    -0.12900
S1017       S  0.31990094  0.86592291  0.54980732    -0.29900
H1018       H  0.38208339  0.83279541  0.55299253     0.12000
S1019       S  0.40965118  0.86575374  0.93834961    -0.27000
H1020       H  0.35374672  0.90514412  0.44243058     0.09200
H1021       H  0.20166680  0.95987982  0.95551682     0.27700
H1022       H  0.33639084  0.83941098  0.57208328     0.22500
H1023       H  0.42596950  0.83720019  0.44992206     0.27800
H1024       H  0.38396444  0.92702403  0.53625620     0.16600
C1025       C  0.24672380  0.91089959  0.58409366    -0.10700
C1026       C  0.21293405  0.90692596  0.58343372     0.15900
C1027       C  0.18917379  0.93229061  0.56864949     0.02800
C1028       C  0.19832414  0.95851659  0.55069058    -0.15000
C1029       C  0.23181660  0.96231044  0.55046119    -0.09900
C1030       C  0.25675104  0.93907019  0.56959898     0.09500
C1031       C  0.20325537  0.87740492  0.60028196     0.10500
S1032       S  0.14758394  0.93404695  0.57421483    -0.24200
H1033       H  0.17924978  0.97693316  0.53795623     0.20800
S1034       S  0.30181593  0.94542735  0.58076916    -0.29900
H1035       H  0.26570730  0.89260307  0.59746581     0.11100
C1036       C  0.17517746  0.85825630  0.58000732     0.04300
C1037       C  0.16169092  0.83603874  0.59945049    -0.12200
C1038       C  0.17744151  0.83006360  0.63812368    -0.07800
C1039       C  0.20874666  0.84563312  0.65682354     0.07700
C1040       C  0.22063424  0.86983166  0.63817017    -0.12900
S1041       S  0.15434910  0.85932282  0.02615399    -0.29900
H1042       H  0.13784008  0.82460960  0.58460822     0.12000
S1043       S  0.23498342  0.83551522  0.70413269    -0.27000
H1044       H  0.24321134  0.88332936  0.65359870     0.09200
H1045       H  0.30004083  0.97957598  0.57922638     0.27700
H1046       H  0.13382058  0.83147265  0.02043912     0.22500
H1047       H  0.22474937  0.80283109  0.70194501     0.27800
H1048       H  0.15743863  0.91863067  0.60957500     0.16600
C1049       C  0.13398426  0.74681103  0.55139161    -0.10700
C1050       C  0.16768990  0.73560835  0.55926258     0.15900
C1051       C  0.19043000  0.73789623  0.59652487     0.02800
C1052       C  0.17871399  0.75011384  0.62498301    -0.15000
C1053       C  0.14563201  0.76295179  0.61690056    -0.09900
C1054       C  0.12298430  0.76127425  0.57958577     0.09500
C1055       C  0.17873873  0.72358265  0.52757646     0.10500
S1056       S  0.23536319  0.72873791  0.60911117    -0.24200
H1057       H  0.19655346  0.75265353  0.65330598     0.20800
S1058       S  0.08188444  0.78119774  0.56675348    -0.29900
H1059       H  0.11683104  0.74564495  0.52262068     0.11100
C1060       C  0.18966805  0.69118326  0.52576841     0.04300
C1061       C  0.19957220  0.68121584  0.49495621    -0.12200
C1062       C  0.19530227  0.69952582  0.96126327    -0.07800
C1063       C  0.18356858  0.73170925  0.96273134     0.07700
C1064       C  0.17490646  0.74189679  0.99420795    -0.12900
S1065       S  0.18901155  0.66194747  0.56131119    -0.29900
H1066       H  0.20738224  0.65621192  0.49305071     0.12000
S1067       S  0.17919204  0.76119016  0.92600054    -0.27000
H1068       H  0.16634152  0.76674540  0.99551075     0.09200
H1069       H  0.07121679  0.77281061  0.52823850     0.27700
H1070       H  0.20348214  0.63580787  0.54719919     0.22500
H1071       H  0.17438041  0.73925173  0.89592339     0.27800
H1072       H  0.23871180  0.73736530  0.57425712     0.16600
C1073       C  0.30442919  0.73060943  0.95415680    -0.10700
C1074       C  0.32776817  0.71556952  0.98561173     0.15900
C1075       C  0.31869304  0.68594385  0.99875254     0.02800
C1076       C  0.28674586  0.67211240  0.97983228    -0.15000
C1077       C  0.26429865  0.68661458  0.94728276    -0.09900
C1078       C  0.27353887  0.71612131  0.93435975     0.09500
C1079       C  0.36364522  0.73347970  0.50658989     0.10500
S1080       S  0.34851942  0.66649738  0.54277058    -0.24200
H1081       H  0.27953081  0.64966735  0.99005932     0.20800
S1082       S  0.24725001  0.73648134  0.89241069    -0.29900
H1083       H  0.31087899  0.75354281  0.94416898     0.11100
C1084       C  0.38231199  0.73843945  0.98118447     0.04300
C1085       C  0.40912405  0.76038122  0.99471748    -0.12200
C1086       C  0.41791073  0.77755167  0.53342322    -0.07800
C1087       C  0.39909079  0.76829513  0.55708427     0.07700
C1088       C  0.37169489  0.74682866  0.54305751    -0.12900
S1089       S  0.37464124  0.71956149  0.93545255    -0.29900
H1090       H  0.42406185  0.76719354  0.97708202     0.12000
S1091       S  0.40739010  0.78381312  0.60445380    -0.27000
H1092       H  0.35560400  0.74168748  0.55999694     0.09200
H1093       H  0.23425705  0.70820502  0.87181829     0.27700
H1094       H  0.40282469  0.73283628  0.92788522     0.22500
H1095       H  0.43319710  0.80576032  0.60510041     0.27800
H1096       H  0.37931418  0.67673276  0.53865372     0.16600
N1097       N  0.72959588  0.17287999  0.42823068    -0.02800
C1098       C  0.69928343  0.18546972  0.42814553    -0.00200
C1099       C  0.67329180  0.17269604  0.39835724    -0.23100
C1100       C  0.68821197  0.15156856  0.37960640    -0.23300
C1101       C  0.72289090  0.15164177  0.39888240    -0.00300
H1102       H  0.64623635  0.17574224  0.39321007     0.13500
H1103       H  0.67474067  0.13513467  0.35711802     0.13500
N1104       N  0.63941947  0.28123245  0.14465164    -0.02800
C1105       C  0.65973272  0.30724920  0.15910297    -0.00200
C1106       C  0.65799696  0.31532897  0.19423590    -0.23100
C1107       C  0.63671339  0.29329881  0.20212723    -0.23300
C1108       C  0.62505901  0.27272657  0.17124552    -0.00300
H1109       H  0.66955806  0.33599443  0.21154172     0.13500
H1110       H  0.62803010  0.29421326  0.22639710     0.13500
N1111       N  0.75139932  0.49338399  0.00642258    -0.02800
C1112       C  0.73690295  0.49225788  0.03422879    -0.00200
C1113       C  0.72471933  0.52281362  0.03939553    -0.23100
C1114       C  0.73493663  0.04347875  0.51405139    -0.23300
C1115       C  0.75004352  0.02514319  0.49274987    -0.00300
H1116       H  0.71119252  0.52933044  0.05874878     0.13500
H1117       H  0.72900925  0.06923802  0.51136498     0.13500
N1118       N  0.93912438  0.30426848  0.04281801    -0.02800
C1119       C  0.93124332  0.33327020  0.02475211    -0.00200
C1120       C  0.96045635  0.35113059  0.03005022    -0.23100
C1121       C  0.98719389  0.33236068  0.05165082    -0.23300
C1122       C  0.97348623  0.30363799  0.05896772    -0.00300
H1123       H  0.96195380  0.37595076  0.02127045     0.13500
H1124       H  0.01352091  0.33979189  0.06290583     0.13500
N1125       N  0.69282884  0.00165734  0.29434484    -0.02800
C1126       C  0.69030700  0.47761697  0.27247287    -0.00200
C1127       C  0.72250663  0.46655004  0.27449793    -0.23100
C1128       C  0.74559155  0.48665445  0.29909008    -0.23300
C1129       C  0.72670007  0.00636906  0.31154705    -0.00300
H1130       H  0.72858129  0.44458341  0.26180805     0.13500
H1131       H  0.77300571  0.48364728  0.30890571     0.13500
N1132       N  0.48875669  0.13923028  0.18931653    -0.02800
C1133       C  0.95720515  0.12798431  0.18517005    -0.00200
C1134       C  0.93393465  0.13952381  0.15219723    -0.23100
C1135       C  0.95164623  0.15850774  0.13507526    -0.23300
C1136       C  0.48527642  0.15831835  0.15869613    -0.00300
H1137       H  0.90655897  0.13676485  0.14325532     0.13500
H1138       H  0.94044186  0.17369564  0.11059718     0.13500
N1139       N  0.88849876  0.03608293  0.39449321    -0.02800
C1140       C  0.91307010  0.51174483  0.41007877    -0.00200
C1141       C  0.91399438  0.50171184  0.44544177    -0.23100
C1142       C  0.89057099  0.52060048  0.45518292    -0.23300
C1143       C  0.87451799  0.04135944  0.42214863    -0.00300
H1144       H  0.92746038  0.48073861  0.46067705     0.13500
H1145       H  0.88259019  0.51700078  0.47961703     0.13500
N1146       N  0.48773671  0.33356898  0.22853693    -0.02800
C1147       C  0.96407607  0.34144673  0.24513648    -0.00200
C1148       C  0.93971279  0.31753691  0.23828820    -0.23100
C1149       C  0.94882288  0.29409319  0.21698458    -0.23300
C1150       C  0.47869573  0.30401933  0.21191346    -0.00300
H1151       H  0.91813165  0.31689546  0.24845492     0.13500
H1152       H  0.93558734  0.27153060  0.20718455     0.13500
In1153     In  0.77361234  0.06495920  0.40323939     1.36900
C1154       C  0.75951671  0.03868217  0.46127740     0.78300
O1155       O  0.82216990  0.06973419  0.38727708    -0.60200
O1156       O  0.82504456  0.04941567  0.43996668    -0.51100
C1157       C  0.74210812  0.02898361  0.34291158     0.70900
O1158       O  0.72854200  0.03608667  0.36759170    -0.45900
C1159       C  0.74492800  0.12388474  0.39629945     0.75700
O1160       O  0.76493247  0.02157051  0.43570529    -0.57800
O1161       O  0.77401839  0.11840608  0.41974142    -0.47900
O1162       O  0.76173832  0.06886901  0.45727509    -0.54200
C1163       C  0.84021213  0.05514664  0.41661179     0.85800
O1164       O  0.77112891  0.04106320  0.34849098    -0.56100
O1165       O  0.73361124  0.10107424  0.37325014    -0.59400
In1166     In  0.52586182  0.24694709  0.15086345     1.36900
C1167       C  0.49702994  0.28392495  0.19180123     0.78300
O1168       O  0.52293528  0.28643318  0.10914856    -0.60200
O1169       O  0.98067881  0.25545275  0.09732118    -0.51100
C1170       C  0.59225863  0.25552586  0.16470375     0.70900
O1171       O  0.57837334  0.25504285  0.19012440    -0.45900
C1172       C  0.50774187  0.18561607  0.15677312     0.75700
O1173       O  0.52618285  0.28987617  0.19026415    -0.57800
O1174       O  0.50644231  0.19824784  0.12569025    -0.47900
O1175       O  0.98376534  0.25906143  0.17393472    -0.54200
C1176       C  0.99291163  0.28077164  0.08836197     0.85800
O1177       O  0.57345382  0.24533447  0.13295738    -0.56100
O1178       O  0.52408554  0.20205290  0.18538861    -0.59400
C1179       C  0.96188325  0.47471788  0.34904731    -0.10700
C1180       C  0.94115537  0.44791451  0.33371315     0.15900
C1181       C  0.91096992  0.44335400  0.34258329     0.02800
C1182       C  0.90314764  0.46437196  0.36800717    -0.15000
C1183       C  0.92422089  0.49060464  0.38420675    -0.09900
C1184       C  0.95365641  0.49623177  0.37415725     0.09500
C1185       C  0.95292554  0.42284663  0.31206618     0.10500
S1186       S  0.88146120  0.41097851  0.32257158    -0.24200
H1187       H  0.88012339  0.46044891  0.37497979     0.20800
S1188       S  0.98187367  0.52984541  0.39251314    -0.29900
H1189       H  0.98504372  0.47830823  0.34229041     0.11100
C1190       C  0.95159506  0.42760479  0.27437200     0.04300
C1191       C  0.95762699  0.40100998  0.25344339    -0.12200
C1192       C  0.96477972  0.36996230  0.26966277    -0.07800
C1193       C  0.96852125  0.36597445  0.30820496     0.07700
C1194       C  0.96248894  0.39236297  0.32886073    -0.12900
S1195       S  0.93950989  0.46670578  0.25215564    -0.29900
H1196       H  0.95488744  0.40391867  0.22389911     0.12000
S1197       S  0.97971294  0.32761355  0.33245826    -0.27000
H1198       H  0.96398683  0.38883400  0.35800343     0.09200
H1199       H  0.97287723  0.53536156  0.42509888     0.27700
H1200       H  0.94532757  0.45869437  0.21817704     0.22500
H1201       H  0.99698943  0.31420777  0.30912794     0.27800
H1202       H  0.88772595  0.40953230  0.28789395     0.16600
C1203       C  0.91820891  0.09530621  0.33826912    -0.10700
C1204       C  0.90540721  0.08162739  0.30203317     0.15900
C1205       C  0.88140765  0.05624058  0.29572666     0.02800
C1206       C  0.87290643  0.04358248  0.32617951    -0.15000
C1207       C  0.88714752  0.05623323  0.36278059    -0.09900
C1208       C  0.90883199  0.08333309  0.36829415     0.09500
C1209       C  0.91890517  0.09343516  0.27218221     0.10500
S1210       S  0.86175332  0.03826662  0.24986784    -0.24200
H1211       H  0.85663945  0.02249686  0.32182973     0.20800
S1212       S  0.92858357  0.10091612  0.41425102    -0.29900
H1213       H  0.93653075  0.11481586  0.34348006     0.11100
C1214       C  0.91350620  0.12578706  0.25924427     0.04300
C1215       C  0.92748791  0.13631634  0.23193708    -0.12200
C1216       C  0.94625537  0.11514225  0.21641946    -0.07800
C1217       C  0.95107469  0.08250866  0.22884330     0.07700
C1218       C  0.93807124  0.07224534  0.25713644    -0.12900
S1219       S  0.88737240  0.15331659  0.27612122    -0.29900
H1220       H  0.92316345  0.16112960  0.22187364     0.12000
S1221       S  0.97192297  0.05243900  0.20864776    -0.27000
H1222       H  0.94224746  0.04732596  0.26692345     0.09200
H1223       H  0.89851760  0.10129600  0.42376537     0.27700
H1224       H  0.89048067  0.18051751  0.25496374     0.22500
H1225       H  0.96002088  0.06518836  0.17193372     0.27800
H1226       H  0.86211121  0.06667902  0.22932206     0.16600
C1227       C  0.63832882  0.07701902  0.26891178    -0.10700
C1228       C  0.60784114  0.06641149  0.27308918     0.15900
C1229       C  0.60692216  0.03542780  0.28892544     0.02800
C1230       C  0.63623033  0.01551277  0.29906868    -0.15000
C1231       C  0.66597393  0.02513637  0.29199689    -0.09900
C1232       C  0.66704515  0.05660466  0.27727139     0.09500
C1233       C  0.57654723  0.08528879  0.25313027     0.10500
S1234       S  0.56839684  0.01846671  0.29308805    -0.24200
H1235       H  0.63510186  0.99138009  0.31000589     0.20800
S1236       S  0.70291799  0.06932447  0.26364243    -0.29900
H1237       H  0.63856355  0.10039856  0.25585751     0.11100
C1238       C  0.56331205  0.11009250  0.27076004     0.04300
C1239       C  0.53455594  0.12818568  0.24931893    -0.12200
C1240       C  0.51970815  0.12255235  0.21043226    -0.07800
C1241       C  0.53354225  0.09812207  0.19285225     0.07700
C1242       C  0.56158822  0.07973475  0.21436564    -0.12900
S1243       S  0.58306737  0.11848462  0.32038265    -0.29900
H1244       H  0.52351558  0.14665782  0.26263602     0.12000
S1245       S  0.51467488  0.08939959  0.14308662    -0.27000
H1246       H  0.57226419  0.06103946  0.20092969     0.09200
H1247       H  0.69138994  0.10116224  0.25267313     0.27700
H1248       H  0.56118813  0.14425707  0.32249357     0.22500
H1249       H  0.03449545  0.06194385  0.14177288     0.27800
H1250       H  0.55136033  0.04806288  0.29354454     0.16600
C1251       C  0.59984741  0.44552169  0.22758700    -0.10700
C1252       C  0.60367865  0.41416881  0.24331074     0.15900
C1253       C  0.63671487  0.40274074  0.26352006     0.02800
C1254       C  0.66395569  0.42419877  0.27252360    -0.15000
C1255       C  0.65999360  0.45627950  0.25898152    -0.09900
C1256       C  0.62796119  0.46613255  0.23381861     0.09500
C1257       C  0.57313822  0.39413243  0.23951659     0.10500
S1258       S  0.64597490  0.36102096  0.27841156    -0.24200
H1259       H  0.68866294  0.41560196  0.29039037     0.20800
S1260       S  0.62155956  0.50338043  0.20721482    -0.29900
H1261       H  0.57487200  0.45392363  0.21025325     0.11100
C1262       C  0.56629843  0.38252307  0.27170192     0.04300
C1263       C  0.53939003  0.36100615  0.26715739    -0.12200
C1264       C  0.51741740  0.35259796  0.23125918    -0.07800
C1265       C  0.52267025  0.36601591  0.19905432     0.07700
C1266       C  0.55095826  0.38607019  0.20344874    -0.12900
S1267       S  0.59045472  0.39646663  0.31861433    -0.29900
H1268       H  0.53462457  0.35139269  0.29171538     0.12000
S1269       S  0.49232616  0.35920154  0.15270647    -0.27000
H1270       H  0.55575593  0.39569092  0.17885342     0.09200
H1271       H  0.65692929  0.00507455  0.21026888     0.28100
H1272       H  0.57262574  0.37897376  0.33824941     0.22500
H1273       H  0.50944565  0.37694861  0.13250834     0.27800
H1274       H  0.61819728  0.34759528  0.25002057     0.16600
C1275       C  0.77669176  0.41137388  0.47232159    -0.10700
C1276       C  0.81570338  0.41709516  0.99169585     0.15900
C1277       C  0.82869954  0.44851678  0.00292188     0.02800
C1278       C  0.80648639  0.47380706  0.00447108    -0.15000
C1279       C  0.77156109  0.46833606  0.99649873    -0.09900
C1280       C  0.75469479  0.43690424  0.47466492     0.09500
C1281       C  0.83908949  0.38912550  0.99414489     0.10500
S1282       S  0.87361911  0.45739274  0.01825430    -0.24200
H1283       H  0.81682470  0.49744847  0.01485196     0.20800
S1284       S  0.70952765  0.42963180  0.45771116    -0.29900
H1285       H  0.76622604  0.38779059  0.46188292     0.11100
C1286       C  0.84739704  0.36815120  0.02545619     0.04300
C1287       C  0.87612388  0.34792186  0.03291117    -0.12200
C1288       C  0.89643983  0.34751914  0.00946402    -0.07800
C1289       C  0.88594738  0.36610034  0.97595034     0.07700
C1290       C  0.85763044  0.38694389  0.96886490    -0.12900
S1291       S  0.82385196  0.36973675  0.05839198    -0.29900
H1292       H  0.88453273  0.33465412  0.05917859     0.12000
S1293       S  0.90974818  0.36855519  0.43993322    -0.27000
H1294       H  0.85107138  0.40288112  0.94449986     0.09200
H1295       H  0.69968702  0.46253619  0.45200031     0.27700
H1296       H  0.84237004  0.34528511  0.08282329     0.22500
H1297       H  0.92234250  0.33396845  0.95130880     0.27800
H1298       H  0.88439330  0.42823507  0.03810024     0.16600
C1299       C  0.74621916  0.41145652  0.08734193    -0.10700
C1300       C  0.71237882  0.40642493  0.08599653     0.15900
C1301       C  0.68811117  0.43141933  0.07122918     0.02800
C1302       C  0.69680231  0.45809736  0.05349055    -0.15000
C1303       C  0.73026389  0.46266401  0.05345097    -0.09900
C1304       C  0.75569105  0.44007202  0.07312974     0.09500
C1305       C  0.70314463  0.37616025  0.10204812     0.10500
S1306       S  0.64636626  0.43204063  0.07644315    -0.24200
H1307       H  0.67731810  0.47608938  0.04052503     0.20800
S1308       S  0.80059818  0.44787226  0.08527370    -0.29900
H1309       H  0.76562721  0.39358293  0.10088566     0.11100
C1310       C  0.67535836  0.35684547  0.08128620     0.04300
C1311       C  0.66222128  0.33379537  0.10015411    -0.12200
C1312       C  0.67818893  0.32705530  0.13860565    -0.07800
C1313       C  0.70949414  0.34256264  0.15749471     0.07700
C1314       C  0.72088150  0.36768624  0.13957846    -0.12900
S1315       S  0.65073224  0.35888313  0.52456435    -0.29900
H1316       H  0.63843968  0.32230022  0.08504478     0.12000
S1317       S  0.73639093  0.33111607  0.20407094    -0.27000
H1318       H  0.74340365  0.38114039  0.15533221     0.09200
H1319       H  0.79767561  0.48194562  0.08288579     0.27700
H1320       H  0.62973448  0.33140046  0.51936533     0.22500
H1321       H  0.72592133  0.29846738  0.20084841     0.27800
H1322       H  0.65634610  0.41621269  0.11156393     0.16600
C1323       C  0.63367278  0.24460841  0.05077431    -0.10700
C1324       C  0.66707700  0.23254097  0.05864741     0.15900
C1325       C  0.68966352  0.23396929  0.09607127     0.02800
C1326       C  0.67813605  0.24645035  0.12456905    -0.15000
C1327       C  0.64541543  0.26015359  0.11648952    -0.09900
C1328       C  0.62287324  0.25911923  0.07909794     0.09500
C1329       C  0.67802079  0.22058647  0.02682360     0.10500
S1330       S  0.73425827  0.22327094  0.10891539    -0.24200
H1331       H  0.69590632  0.24838216  0.15300971     0.20800
S1332       S  0.58205329  0.27953480  0.06651671    -0.29900
H1333       H  0.61657175  0.24393123  0.02194832     0.11100
C1334       C  0.68836911  0.18805332  0.02448877     0.04300
C1335       C  0.69841113  0.17827665  0.99369850    -0.12200
C1336       C  0.69309699  0.19889064  0.46204822    -0.07800
C1337       C  0.68275204  0.23138819  0.46468472     0.07700
C1338       C  0.67415584  0.24125969  0.49627839    -0.12900
S1339       S  0.68667877  0.15841831  0.05921958    -0.29900
H1340       H  0.70600747  0.15324773  0.99151325     0.12000
S1341       S  0.67984022  0.26155537  0.42911947    -0.27000
H1342       H  0.66656785  0.26632420  0.49839651     0.09200
H1343       H  0.57277067  0.27431501  0.02734284     0.27700
H1344       H  0.69933815  0.13182734  0.04382076     0.22500
H1345       H  0.67117465  0.24018534  0.39813667     0.27800
H1346       H  0.73829582  0.23235198  0.07452705     0.16600
C1347       C  0.80166496  0.23175245  0.45549706    -0.10700
C1348       C  0.82534143  0.21614772  0.48620571     0.15900
C1349       C  0.81672455  0.18600635  0.49858046     0.02800
C1350       C  0.78479806  0.17220811  0.47962471    -0.15000
C1351       C  0.76206094  0.18724294  0.44766508    -0.09900
C1352       C  0.77092369  0.21721413  0.43545054     0.09500
C1353       C  0.86243096  0.23284519  0.00757943     0.10500
S1354       S  0.84757073  0.16538548  0.04320210    -0.24200
H1355       H  0.77789171  0.14933251  0.48922134     0.20800
S1356       S  0.74457709  0.23780426  0.39373451    -0.29900
H1357       H  0.80787336  0.25502925  0.44606443     0.11100
C1358       C  0.87938050  0.23926209  0.48106922     0.04300
C1359       C  0.90608726  0.26129804  0.49440797    -0.12200
C1360       C  0.91682283  0.27668552  0.03483729    -0.07800
C1361       C  0.89778553  0.26751719  0.05830156     0.07700
C1362       C  0.87026606  0.24620879  0.04403227    -0.12900
S1363       S  0.87104446  0.22089157  0.43496855    -0.29900
H1364       H  0.92067895  0.26841715  0.47651888     0.12000
S1365       S  0.90639236  0.28247911  0.10592665    -0.27000
H1366       H  0.85406901  0.24103393  0.06083931     0.09200
H1367       H  0.73300394  0.20955497  0.37237886     0.27700
H1368       H  0.89865853  0.23476526  0.42678474     0.22500
H1369       H  0.93389936  0.30261273  0.10756571     0.27800
H1370       H  0.87847096  0.17668322  0.04035824     0.16600
N1371       N  0.73357944  0.17315600  0.93111016    -0.02800
C1372       C  0.70330897  0.18611045  0.93067301    -0.00200
C1373       C  0.67734625  0.17361425  0.90063935    -0.23100
C1374       C  0.69222961  0.15230504  0.88205554    -0.23300
C1375       C  0.72683147  0.15196621  0.90171157    -0.00300
H1376       H  0.65028570  0.17703251  0.89515010     0.13500
H1377       H  0.67873003  0.13604558  0.85938523     0.13500
N1378       N  0.63415039  0.28099388  0.64043058    -0.02800
C1379       C  0.65381265  0.30753938  0.65415517    -0.00200
C1380       C  0.65119261  0.31661766  0.68865217    -0.23100
C1381       C  0.62999961  0.29463186  0.69684379    -0.23300
C1382       C  0.61941274  0.27305594  0.66681543    -0.00300
H1383       H  0.66207510  0.33785874  0.70526327     0.13500
H1384       H  0.62070324  0.29608730  0.72063451     0.13500
N1385       N  0.74855201  0.49193332  0.50076343    -0.02800
C1386       C  0.73412840  0.48988724  0.52854299    -0.00200
C1387       C  0.72315653  0.52037070  0.53586083    -0.23100
C1388       C  0.73342834  0.04172326  0.01226728    -0.23300
C1389       C  0.74930867  0.02336718  0.99174901    -0.00300
H1390       H  0.71004023  0.52625032  0.55579334     0.13500
H1391       H  0.72748675  0.06747318  0.00934430     0.13500
N1392       N  0.93576527  0.30342157  0.53795755    -0.02800
C1393       C  0.92822370  0.33266984  0.52036717    -0.00200
C1394       C  0.95755732  0.35071699  0.52727585    -0.23100
C1395       C  0.98395353  0.33176772  0.54925162    -0.23300
C1396       C  0.96999066  0.30276840  0.55533086    -0.00300
H1397       H  0.95933509  0.37568056  0.51923464     0.13500
H1398       H  0.01019182  0.33922997  0.56153636     0.13500
N1399       N  0.69629667  0.00446827  0.79277693    -0.02800
C1400       C  0.69091037  0.47335491  0.77295440    -0.00200
C1401       C  0.72322164  0.46182213  0.77619040    -0.23100
C1402       C  0.74607728  0.48188089  0.80112760    -0.23300
C1403       C  0.73011577  0.00908005  0.81024937    -0.00300
H1404       H  0.72943198  0.43954847  0.76417219     0.13500
H1405       H  0.77344709  0.47858679  0.81180265     0.13500
N1406       N  0.48794623  0.13668182  0.68785149    -0.02800
C1407       C  0.95712034  0.12406584  0.68501016    -0.00200
C1408       C  0.93314798  0.13428063  0.65176411    -0.23100
C1409       C  0.94962825  0.15399843  0.63393392    -0.23300
C1410       C  0.48329048  0.15538896  0.65668257    -0.00300
H1411       H  0.90596545  0.13025123  0.64311632     0.13500
H1412       H  0.93752177  0.16847016  0.60906580     0.13500
N1413       N  0.89263021  0.03605697  0.89992822    -0.02800
C1414       C  0.91119276  0.51254607  0.90436922    -0.00200
C1415       C  0.91412229  0.50262354  0.94034253    -0.23100
C1416       C  0.89119443  0.52112266  0.95140026    -0.23300
C1417       C  0.87796019  0.04218976  0.92687127    -0.00300
H1418       H  0.92867230  0.48203996  0.95530214     0.13500
H1419       H  0.88456499  0.51740309  0.97670263     0.13500
N1420       N  0.48420287  0.33315665  0.72299247    -0.02800
C1421       C  0.96040424  0.34219837  0.73888909    -0.00200
C1422       C  0.93416107  0.32007332  0.72940754    -0.23100
C1423       C  0.94284185  0.29628911  0.70824457    -0.23300
C1424       C  0.47376737  0.30436821  0.70497839    -0.00300
H1425       H  0.91159280  0.32075375  0.73785704     0.13500
H1426       H  0.92824376  0.27474751  0.69683508     0.13500
In1427     In  0.77615951  0.06458328  0.90495113     1.36900
C1428       C  0.75993682  0.03715835  0.96114249     0.78300
O1429       O  0.82546404  0.06960742  0.89052974    -0.60200
O1430       O  0.82714270  0.04861631  0.94248939    -0.51100
C1431       C  0.74529392  0.03056404  0.84278600     0.70900
O1432       O  0.73116870  0.03688315  0.86718808    -0.45900
C1433       C  0.74859483  0.12398795  0.89917700     0.75700
O1434       O  0.76635065  0.02040810  0.93587143    -0.57800
O1435       O  0.77695310  0.11752871  0.92352622    -0.47900
O1436       O  0.76222180  0.06740159  0.95768806    -0.54200
C1437       C  0.84304549  0.05493627  0.91999530     0.85800
O1438       O  0.77463786  0.04228067  0.84972494    -0.56100
O1439       O  0.73755731  0.10192080  0.87501508    -0.59400
In1440     In  0.52121184  0.24517417  0.64647215     1.36900
C1441       C  0.49213545  0.28320453  0.68598401     0.78300
O1442       O  0.51882837  0.28479081  0.60518955    -0.60200
O1443       O  0.97660523  0.25393554  0.59284372    -0.51100
C1444       C  0.58724970  0.25488228  0.66038661     0.70900
O1445       O  0.57346889  0.25379961  0.68585982    -0.45900
C1446       C  0.50439155  0.18356611  0.65400273     0.75700
O1447       O  0.52265915  0.28672367  0.68779468    -0.57800
O1448       O  0.50318127  0.19556112  0.62264263    -0.47900
O1449       O  0.97780769  0.25995983  0.66624446    -0.54200
C1450       C  0.98902540  0.27942178  0.58446416     0.85800
O1451       O  0.56867575  0.24456150  0.62857548    -0.56100
O1452       O  0.51951999  0.20106944  0.68211168    -0.59400
C1453       C  0.96555775  0.46847768  0.85438578    -0.10700
C1454       C  0.94092196  0.44866410  0.82937199     0.15900
C1455       C  0.90670912  0.45107381  0.82835342     0.02800
C1456       C  0.89805595  0.47243874  0.85291819    -0.15000
C1457       C  0.92253680  0.49226616  0.87795360    -0.09900
C1458       C  0.95668008  0.49041555  0.87860499     0.09500
C1459       C  0.95177522  0.42283351  0.80802047     0.10500
S1460       S  0.87317389  0.42641321  0.79771770    -0.24200
H1461       H  0.87195411  0.47328610  0.85292693     0.20800
S1462       S  0.99012677  0.51435255  0.91036705    -0.29900
H1463       H  0.99192538  0.46628964  0.85560804     0.11100
C1464       C  0.95517543  0.42849356  0.77235220     0.04300
C1465       C  0.96018768  0.40191268  0.75079935    -0.12200
C1466       C  0.96195010  0.37004242  0.76459418    -0.07800
C1467       C  0.96113751  0.36493278  0.80152445     0.07700
C1468       C  0.95567950  0.39126307  0.82260028    -0.12900
S1469       S  0.95061301  0.46916933  0.75340162    -0.29900
H1470       H  0.96100314  0.40570343  0.72254598     0.12000
S1471       S  0.96616429  0.32526595  0.82304864    -0.27000
H1472       H  0.95353173  0.38703149  0.85025536     0.09200
H1473       H  0.96928302  0.53947322  0.91639375     0.27700
H1474       H  0.95665475  0.46100047  0.71958889     0.22500
H1475       H  0.98720760  0.31226397  0.80359697     0.27800
H1476       H  0.88687657  0.42384355  0.76810690     0.16600
C1477       C  0.91739424  0.09470785  0.83889645    -0.10700
C1478       C  0.90751050  0.07812674  0.80417817     0.15900
C1479       C  0.88683755  0.05024313  0.80000860     0.02800
C1480       C  0.87870010  0.03848036  0.83112513    -0.15000
C1481       C  0.89012814  0.05423629  0.86635110    -0.09900
C1482       C  0.90840582  0.08344641  0.86951522     0.09500
C1483       C  0.92051238  0.08983213  0.77377788     0.10500
S1484       S  0.87108718  0.02798366  0.75623571    -0.24200
H1485       H  0.86506662  0.01580035  0.82855369     0.20800
S1486       S  0.92475140  0.10492043  0.91363444    -0.29900
H1487       H  0.93325377  0.11605784  0.84258138     0.11100
C1488       C  0.91220731  0.12114303  0.75815478     0.04300
C1489       C  0.92571090  0.13168022  0.73042633    -0.12200
C1490       C  0.94686507  0.11150277  0.71698742    -0.07800
C1491       C  0.95461500  0.07984583  0.73210054     0.07700
C1492       C  0.94211450  0.06971276  0.76088593    -0.12900
S1493       S  0.88295116  0.14719709  0.77204920    -0.29900
H1494       H  0.91911223  0.15567694  0.71836536     0.12000
S1495       S  0.97854593  0.05061684  0.71470460    -0.27000
H1496       H  0.94861028  0.04561652  0.77274091     0.09200
H1497       H  0.89366105  0.10452185  0.92099129     0.27700
H1498       H  0.88502253  0.17423847  0.75014586     0.22500
H1499       H  0.96667620  0.06148545  0.67717339     0.27800
H1500       H  0.86885866  0.05496780  0.73267808     0.16600
C1501       C  0.64072629  0.07897972  0.76646471    -0.10700
C1502       C  0.61040681  0.06795479  0.77076675     0.15900
C1503       C  0.61012636  0.03716944  0.78732660     0.02800
C1504       C  0.63978132  0.01777007  0.79781529    -0.15000
C1505       C  0.66934144  0.02774633  0.79063857    -0.09900
C1506       C  0.66994506  0.05915550  0.77560195     0.09500
C1507       C  0.57868821  0.08624711  0.75076132     0.10500
S1508       S  0.57200276  0.01960217  0.79185088    -0.24200
H1509       H  0.63907715  0.99369647  0.80907151     0.20800
S1510       S  0.70608594  0.07256196  0.76292209    -0.29900
H1511       H  0.64055410  0.10221752  0.75297726     0.11100
C1512       C  0.56428414  0.10986782  0.76869541     0.04300
C1513       C  0.53452492  0.12676966  0.74756921    -0.12200
C1514       C  0.51979277  0.12122666  0.70865256    -0.07800
C1515       C  0.53497560  0.09821090  0.69066518     0.07700
C1516       C  0.56404062  0.08094974  0.71190663    -0.12900
S1517       S  0.58377937  0.11818847  0.81836763    -0.29900
H1518       H  0.52257263  0.14418762  0.76118188     0.12000
S1519       S  0.51634147  0.08940988  0.64087061    -0.27000
H1520       H  0.57554751  0.06312502  0.69827358     0.09200
H1521       H  0.69452357  0.10455768  0.75290188     0.27700
H1522       H  0.56163548  0.14374554  0.82040096     0.22500
H1523       H  0.03980778  0.06631059  0.63778652     0.27800
H1524       H  0.55448752  0.04887979  0.79235086     0.16600
C1525       C  0.60075830  0.44122446  0.72602020    -0.10700
C1526       C  0.60371718  0.41047622  0.74317653     0.15900
C1527       C  0.63631782  0.39937551  0.76547982     0.02800
C1528       C  0.66373755  0.42065628  0.77453053    -0.15000
C1529       C  0.66053276  0.45212379  0.75932941    -0.09900
C1530       C  0.62912976  0.46157261  0.73262259     0.09500
C1531       C  0.57266050  0.39072737  0.73812368     0.10500
S1532       S  0.64504678  0.35826191  0.78288475    -0.24200
H1533       H  0.68802082  0.41240609  0.79374080     0.20800
S1534       S  0.62383584  0.49814571  0.70491793    -0.29900
H1535       H  0.57623563  0.44938048  0.70728317     0.11100
C1536       C  0.56380465  0.37999620  0.76944807     0.04300
C1537       C  0.53606975  0.35919402  0.76368720    -0.12200
C1538       C  0.51511643  0.35083202  0.72725832    -0.07800
C1539       C  0.52251902  0.36334114  0.69581421     0.07700
C1540       C  0.55169964  0.38244399  0.70155851    -0.12900
S1541       S  0.58606738  0.39459411  0.81662519    -0.29900
H1542       H  0.52965013  0.35037874  0.78763304     0.12000
S1543       S  0.49355710  0.35712178  0.64858623    -0.27000
H1544       H  0.55797599  0.39142842  0.67755908     0.09200
H1545       H  0.65963211  0.00792058  0.70821370     0.28100
H1546       H  0.56922430  0.37508925  0.83557752     0.22500
H1547       H  0.51370915  0.37179269  0.62952921     0.27800
H1548       H  0.61732093  0.34399158  0.75531125     0.16600
C1549       C  0.78039572  0.41214349  0.98080210    -0.10700
C1550       C  0.81214754  0.41575936  0.48436178     0.15900
C1551       C  0.82551056  0.44681375  0.49700403     0.02800
C1552       C  0.80353812  0.47221333  0.49881590    -0.15000
C1553       C  0.76845662  0.46719226  0.48988842    -0.09900
C1554       C  0.75816305  0.43755407  0.98276085     0.09500
C1555       C  0.83532119  0.38764598  0.48629235     0.10500
S1556       S  0.87058035  0.45499938  0.51419323    -0.24200
H1557       H  0.81416227  0.49547150  0.51036076     0.20800
S1558       S  0.71316511  0.42940679  0.96730129    -0.29900
H1559       H  0.77024051  0.38820457  0.97156004     0.11100
C1560       C  0.84176717  0.36500289  0.51588827     0.04300
C1561       C  0.87089677  0.34516683  0.52438502    -0.12200
C1562       C  0.89338330  0.34672843  0.50344200    -0.07800
C1563       C  0.88457041  0.36674691  0.47104619     0.07700
C1564       C  0.85587685  0.38720019  0.46303876    -0.12900
S1565       S  0.81527853  0.36387184  0.54575562    -0.29900
H1566       H  0.87767594  0.33082296  0.54951380     0.12000
S1567       S  0.90856534  0.36542200  0.94222639    -0.27000
H1568       H  0.85072076  0.40426204  0.43996065     0.09200
H1569       H  0.70248367  0.46202172  0.96058829     0.27700
H1570       H  0.83158080  0.33723938  0.56793098     0.22500
H1571       H  0.92347249  0.33696580  0.44783391     0.27800
H1572       H  0.88038970  0.42522692  0.53298996     0.16600
C1573       C  0.74118333  0.40839404  0.57986274    -0.10700
C1574       C  0.70719897  0.40416274  0.57839835     0.15900
C1575       C  0.68333795  0.42930347  0.56280637     0.02800
C1576       C  0.69279609  0.45563394  0.54521678    -0.15000
C1577       C  0.72654587  0.45973487  0.54601381    -0.09900
C1578       C  0.75139185  0.43661399  0.56564234     0.09500
C1579       C  0.69753477  0.37465854  0.59539486     0.10500
S1580       S  0.64120650  0.43078481  0.56695167    -0.24200
H1581       H  0.67374989  0.47395013  0.53203898     0.20800
S1582       S  0.79651535  0.44313183  0.57768856    -0.29900
H1583       H  0.76018233  0.39025535  0.59368579     0.11100
C1584       C  0.66969881  0.35519275  0.57515477     0.04300
C1585       C  0.65644885  0.33280651  0.59465628    -0.12200
C1586       C  0.67228367  0.32688097  0.63331762    -0.07800
C1587       C  0.70347795  0.34263582  0.65192643     0.07700
C1588       C  0.71503822  0.36708727  0.63328146    -0.12900
S1589       S  0.65628320  0.36160917  0.03084122    -0.29900
H1590       H  0.63269120  0.32117204  0.57982927     0.12000
S1591       S  0.72998795  0.33233013  0.69906583    -0.27000
H1592       H  0.73753889  0.38071499  0.64870882     0.09200
H1593       H  0.79467331  0.47728555  0.57647804     0.27700
H1594       H  0.63583177  0.33368601  0.02482440     0.22500
H1595       H  0.71967160  0.29966667  0.69685070     0.27800
H1596       H  0.65029120  0.41540400  0.60229433     0.16600
C1597       C  0.62924905  0.24277295  0.54770623    -0.10700
C1598       C  0.66275114  0.23085074  0.55614097     0.15900
C1599       C  0.68509352  0.23271759  0.59364114     0.02800
C1600       C  0.67327124  0.24574777  0.62165872    -0.15000
C1601       C  0.64049623  0.25943850  0.61293014    -0.09900
C1602       C  0.61815342  0.25779280  0.57549183     0.09500
C1603       C  0.67413036  0.21912062  0.52461208     0.10500
S1604       S  0.72970476  0.22190269  0.60716155    -0.24200
H1605       H  0.69083125  0.24811176  0.65015140     0.20800
S1606       S  0.57730610  0.27824100  0.56205043    -0.29900
H1607       H  0.61237849  0.24175037  0.51879362     0.11100
C1608       C  0.68399981  0.18651949  0.52180289     0.04300
C1609       C  0.69401226  0.17694337  0.49092146    -0.12200
C1610       C  0.69695697  0.19986540  0.96433973    -0.07800
C1611       C  0.68590751  0.23222779  0.96630214     0.07700
C1612       C  0.67731866  0.24235812  0.99785602    -0.12900
S1613       S  0.68186692  0.15666479  0.55610912    -0.29900
H1614       H  0.70117749  0.15184982  0.48828353     0.12000
S1615       S  0.68238309  0.26198911  0.93008898    -0.27000
H1616       H  0.66931975  0.26735011  0.99952848     0.09200
H1617       H  0.56822844  0.27217354  0.52304997     0.27700
H1618       H  0.69410995  0.13006211  0.54029475     0.22500
H1619       H  0.67590593  0.24027375  0.89957077     0.27800
H1620       H  0.73411964  0.22961377  0.57257175     0.16600
C1621       C  0.80631177  0.23137968  0.95801742    -0.10700
C1622       C  0.82928046  0.21640520  0.98978704     0.15900
C1623       C  0.82000539  0.18680816  0.00277468     0.02800
C1624       C  0.78821410  0.17291732  0.98337019    -0.15000
C1625       C  0.76611977  0.18739534  0.95059590    -0.09900
C1626       C  0.77555199  0.21688153  0.93783729     0.09500
C1627       C  0.85865270  0.23237425  0.50333192     0.10500
S1628       S  0.84541195  0.16374968  0.53749689    -0.24200
H1629       H  0.78082575  0.15047205  0.99342641     0.20800
S1630       S  0.74959908  0.23724893  0.89572273    -0.29900
H1631       H  0.81294467  0.25428432  0.94813563     0.11100
C1632       C  0.88415458  0.23904345  0.98626388     0.04300
C1633       C  0.91069463  0.26123601  0.99986763    -0.12200
C1634       C  0.91320825  0.27605075  0.52988547    -0.07800
C1635       C  0.89490331  0.26647996  0.55396025     0.07700
C1636       C  0.86744353  0.24506978  0.54014637    -0.12900
S1637       S  0.87741265  0.21947704  0.94105988    -0.29900
H1638       H  0.92596733  0.26789889  0.98254157     0.12000
S1639       S  0.90373033  0.28175773  0.60148875    -0.27000
H1640       H  0.85182928  0.23953639  0.55750743     0.09200
H1641       H  0.73745948  0.20894857  0.87475044     0.27700
H1642       H  0.90538899  0.23324208  0.93351737     0.22500
H1643       H  0.92912264  0.30407234  0.60175076     0.27800
H1644       H  0.87568653  0.17501321  0.53294857     0.16600
N1645       N  0.73329061  0.67499064  0.43078715    -0.02800
C1646       C  0.70323120  0.68839203  0.43043504    -0.00200
C1647       C  0.67701441  0.67600295  0.40058209    -0.23100
C1648       C  0.69151389  0.65428069  0.38205044    -0.23300
C1649       C  0.72614665  0.65360945  0.40154543    -0.00300
H1650       H  0.65001376  0.67972092  0.39525752     0.13500
H1651       H  0.67771851  0.63797898  0.35957583     0.13500
N1652       N  0.63609320  0.78112443  0.14033101    -0.02800
C1653       C  0.65591499  0.80746806  0.15472971    -0.00200
C1654       C  0.65374696  0.81563396  0.18965636    -0.23100
C1655       C  0.63289029  0.79322831  0.19760263    -0.23300
C1656       C  0.62179259  0.77241351  0.16689912    -0.00300
H1657       H  0.66479308  0.83652763  0.20683431     0.13500
H1658       H  0.62405116  0.79400999  0.22175883     0.13500
N1659       N  0.75161723  0.99170079  0.00251139    -0.02800
C1660       C  0.73718008  0.99023129  0.03034809    -0.00200
C1661       C  0.72553971  0.02075942  0.03647129    -0.23100
C1662       C  0.73155979  0.54189511  0.51250502    -0.23300
C1663       C  0.74700898  0.52387689  0.49127879    -0.00300
H1664       H  0.71217102  0.02700346  0.05606052     0.13500
H1665       H  0.72626099  0.56778239  0.51062072     0.13500
N1666       N  0.93841354  0.80248611  0.03732316    -0.02800
C1667       C  0.93090874  0.83153663  0.01927794    -0.00200
C1668       C  0.96024428  0.84940679  0.02546573    -0.23100
C1669       C  0.98665686  0.83063073  0.04764821    -0.23300
C1670       C  0.97267346  0.80187637  0.05444393    -0.00300
H1671       H  0.96197294  0.87429799  0.01706000     0.13500
H1672       H  0.01290022  0.83813137  0.05973344     0.13500
N1673       N  0.69296821  0.50449108  0.29474612    -0.02800
C1674       C  0.69030243  0.97448576  0.27252602    -0.00200
C1675       C  0.72259086  0.96319832  0.27521074    -0.23100
C1676       C  0.74556351  0.98350173  0.29968678    -0.23300
C1677       C  0.72687286  0.50921364  0.31160894    -0.00300
H1678       H  0.72877552  0.94107636  0.26289259     0.13500
H1679       H  0.77297879  0.98050657  0.30979476     0.13500
N1680       N  0.48714053  0.63936871  0.18933205    -0.02800
C1681       C  0.95596388  0.62733467  0.18610799    -0.00200
C1682       C  0.93228959  0.63819477  0.15303922    -0.23100
C1683       C  0.94949730  0.65698666  0.13514910    -0.23300
C1684       C  0.48299051  0.65797320  0.15818894    -0.00300
H1685       H  0.90497549  0.63505880  0.14444662     0.13500
H1686       H  0.93790078  0.67165178  0.11030825     0.13500
N1687       N  0.89012624  0.53623508  0.39796826    -0.02800
C1688       C  0.91087652  0.01109441  0.40599782    -0.00200
C1689       C  0.91216377  0.00101511  0.44144808    -0.23100
C1690       C  0.88958872  0.02049493  0.45192645    -0.23300
C1691       C  0.87541654  0.54112993  0.42510422    -0.00300
H1692       H  0.92529715  0.97974988  0.45631199     0.13500
H1693       H  0.88193087  0.01705145  0.47659947     0.13500
N1694       N  0.48516078  0.83290436  0.22557759    -0.02800
C1695       C  0.96106568  0.84058030  0.24078389    -0.00200
C1696       C  0.93612544  0.81716748  0.23281757    -0.23100
C1697       C  0.94516430  0.79388712  0.21131219    -0.23300
C1698       C  0.47562934  0.80374861  0.20806773    -0.00300
H1699       H  0.91411287  0.81680078  0.24225935     0.13500
H1700       H  0.93150620  0.77168609  0.20069421     0.13500
In1701     In  0.77429627  0.56551460  0.40504362     1.36900
C1702       C  0.75791445  0.53804628  0.46107960     0.78300
O1703       O  0.82341742  0.57005266  0.39008586    -0.60200
O1704       O  0.82518022  0.54841530  0.44175713    -0.51100
C1705       C  0.74248714  0.53121143  0.34349821     0.70900
O1706       O  0.72831966  0.53901615  0.36743947    -0.45900
C1707       C  0.74748870  0.62525420  0.39912613     0.75700
O1708       O  0.76317161  0.52153934  0.43499333    -0.57800
O1709       O  0.77580531  0.61856949  0.42343627    -0.47900
O1710       O  0.76161257  0.56823216  0.45873405    -0.54200
C1711       C  0.84092268  0.55471968  0.41908840     0.85800
O1712       O  0.77226657  0.54186142  0.35039314    -0.56100
O1713       O  0.73609547  0.60315891  0.37509833    -0.59400
In1714     In  0.52315025  0.74633860  0.14766245     1.36900
C1715       C  0.49390250  0.78362162  0.18792804     0.78300
O1716       O  0.52013897  0.78738642  0.10811935    -0.60200
O1717       O  0.97983515  0.75305787  0.09194971    -0.51100
C1718       C  0.58931845  0.75475144  0.16050008     0.70900
O1719       O  0.57594911  0.75350934  0.18630423    -0.45900
C1720       C  0.50504070  0.68526889  0.15522572     0.75700
O1721       O  0.52424963  0.78771771  0.18932018    -0.57800
O1722       O  0.50328141  0.69736239  0.12374782    -0.47900
O1723       O  0.97970168  0.75971097  0.16719264    -0.54200
C1724       C  0.99156913  0.77929765  0.08446489     0.85800
O1725       O  0.57013019  0.74516735  0.12866462    -0.56100
O1726       O  0.52157334  0.70216391  0.18331779    -0.59400
C1727       C  0.95907401  0.97312811  0.34501803    -0.10700
C1728       C  0.93733036  0.94726692  0.32861315     0.15900
C1729       C  0.90652893  0.94380817  0.33648940     0.02800
C1730       C  0.89914107  0.96483073  0.36220101    -0.15000
C1731       C  0.92132294  0.98997449  0.37963008    -0.09900
C1732       C  0.95131229  0.99464173  0.37040172     0.09500
C1733       C  0.94876811  0.92184219  0.30715510     0.10500
S1734       S  0.87574887  0.91282638  0.31489636    -0.24200
H1735       H  0.87567659  0.96173410  0.36851319     0.20800
S1736       S  0.98072794  0.02709165  0.39011155    -0.29900
H1737       H  0.98267650  0.97589680  0.33895737     0.11100
C1738       C  0.94886070  0.92674816  0.26998152     0.04300
C1739       C  0.95534709  0.90016593  0.24934791    -0.12200
C1740       C  0.96152560  0.86898858  0.26534163    -0.07800
C1741       C  0.96361458  0.86477141  0.30339234     0.07700
C1742       C  0.95711721  0.89113989  0.32375488    -0.12900
S1743       S  0.93804247  0.96608347  0.24797525    -0.29900
H1744       H  0.95373151  0.90320829  0.22013642     0.12000
S1745       S  0.97333925  0.82614705  0.32729012    -0.27000
H1746       H  0.95749498  0.88749646  0.35251311     0.09200
H1747       H  0.97221969  0.03165548  0.42316056     0.27700
H1748       H  0.94406310  0.95788183  0.21415768     0.22500
H1749       H  0.99228660  0.81313788  0.30547409     0.27800
H1750       H  0.88303734  0.91120785  0.28080023     0.16600
C1751       C  0.91829058  0.59538621  0.34030171    -0.10700
C1752       C  0.90578273  0.58109986  0.30435140     0.15900
C1753       C  0.88246137  0.55516311  0.29868279     0.02800
C1754       C  0.87434174  0.54266961  0.32946647    -0.15000
C1755       C  0.88828679  0.55598580  0.36578099    -0.09900
C1756       C  0.90929870  0.58353563  0.37065113     0.09500
C1757       C  0.91890199  0.59289232  0.27415869     0.10500
S1758       S  0.86322125  0.53626126  0.25326774    -0.24200
H1759       H  0.85863683  0.52121662  0.32562436     0.20800
S1760       S  0.92877160  0.60190977  0.41623469    -0.29900
H1761       H  0.93612062  0.61528887  0.34505673     0.11100
C1762       C  0.91283566  0.62506853  0.26070256     0.04300
C1763       C  0.92650566  0.63561505  0.23313420    -0.12200
C1764       C  0.94554875  0.61460434  0.21778486    -0.07800
C1765       C  0.95097443  0.58211775  0.23065154     0.07700
C1766       C  0.93835054  0.57187901  0.25926679    -0.12900
S1767       S  0.88616422  0.65229769  0.27716802    -0.29900
H1768       H  0.92166716  0.66028889  0.22268633     0.12000
S1769       S  0.97214054  0.55217357  0.21064212    -0.27000
H1770       H  0.94303001  0.54708922  0.26941682     0.09200
H1771       H  0.89905973  0.60111408  0.42638536     0.27700
H1772       H  0.88870414  0.67939891  0.25557505     0.22500
H1773       H  0.96049484  0.56484238  0.17388297     0.27800
H1774       H  0.86309563  0.56431119  0.23196050     0.16600
C1775       C  0.63792199  0.57943686  0.26897306    -0.10700
C1776       C  0.60773275  0.56886494  0.27395676     0.15900
C1777       C  0.60737473  0.53820304  0.29076261     0.02800
C1778       C  0.63676293  0.51838060  0.30059238    -0.15000
C1779       C  0.66615097  0.52793711  0.29271312    -0.09900
C1780       C  0.66682596  0.55924827  0.27746118     0.09500
C1781       C  0.57609223  0.58722338  0.25377958     0.10500
S1782       S  0.56942575  0.52149917  0.29668809    -0.24200
H1783       H  0.63597546  0.49438677  0.31202803     0.20800
S1784       S  0.70251727  0.57202240  0.26354300    -0.29900
H1785       H  0.63778353  0.60258837  0.25530902     0.11100
C1786       C  0.56223532  0.61174907  0.27115268     0.04300
C1787       C  0.53311982  0.62927065  0.24948895    -0.12200
C1788       C  0.51848329  0.62336960  0.21062473    -0.07800
C1789       C  0.53290598  0.59920964  0.19330891     0.07700
C1790       C  0.56135012  0.58142143  0.21502728    -0.12900
S1791       S  0.58165233  0.62052271  0.32073185    -0.29900
H1792       H  0.52162175  0.64750864  0.26262460     0.12000
S1793       S  0.51429094  0.58997187  0.14364619    -0.27000
H1794       H  0.57248834  0.56298416  0.20173918     0.09200
H1795       H  0.69065840  0.60369297  0.25214699     0.27700
H1796       H  0.55886128  0.64550703  0.32268721     0.22500
H1797       H  0.03441456  0.56193376  0.14322635     0.27800
H1798       H  0.55259258  0.55117394  0.29729258     0.16600
C1799       C  0.59961922  0.94318952  0.22604785    -0.10700
C1800       C  0.60281976  0.91187207  0.24181736     0.15900
C1801       C  0.63563387  0.90012696  0.26244823     0.02800
C1802       C  0.66317511  0.92128410  0.27181573    -0.15000
C1803       C  0.65977593  0.95339452  0.25838568    -0.09900
C1804       C  0.62804409  0.96350194  0.23275165     0.09500
C1805       C  0.57184211  0.89227491  0.23766663     0.10500
S1806       S  0.64426875  0.85838959  0.27753654    -0.24200
H1807       H  0.68765935  0.91244939  0.28998686     0.20800
S1808       S  0.62238133  0.00076052  0.20622217    -0.29900
H1809       H  0.57486824  0.95183761  0.20837491     0.11100
C1810       C  0.56435335  0.88104037  0.26963789     0.04300
C1811       C  0.53686027  0.86012171  0.26478790    -0.12200
C1812       C  0.51512504  0.85173186  0.22874440    -0.07800
C1813       C  0.52111646  0.86474735  0.19672947     0.07700
C1814       C  0.54983058  0.88432574  0.20146947    -0.12900
S1815       S  0.58844017  0.89477052  0.31665820    -0.29900
H1816       H  0.53152041  0.85090579  0.28920154     0.12000
S1817       S  0.49110482  0.85820357  0.15012970    -0.27000
H1818       H  0.55508653  0.89368288  0.17701958     0.09200
H1819       H  0.65588666  0.50780687  0.21030284     0.28100
H1820       H  0.57185794  0.87567903  0.33627482     0.22500
H1821       H  0.50959895  0.87427523  0.13014203     0.27800
H1822       H  0.61609450  0.84516760  0.24953393     0.16600
C1823       C  0.78105359  0.91283824  0.47564534    -0.10700
C1824       C  0.81568354  0.91562636  0.98656343     0.15900
C1825       C  0.82885755  0.94679528  0.99883823     0.02800
C1826       C  0.80673949  0.97206421  0.00073417    -0.15000
C1827       C  0.77172127  0.96677785  0.99223827    -0.09900
C1828       C  0.75893564  0.93825303  0.47795645     0.09500
C1829       C  0.83893071  0.88764156  0.98849094     0.10500
S1830       S  0.87387519  0.95528601  0.01521024    -0.24200
H1831       H  0.81720520  0.99549584  0.01181718     0.20800
S1832       S  0.71385962  0.93051162  0.46185774    -0.29900
H1833       H  0.77073989  0.88910316  0.46566592     0.11100
C1834       C  0.84666874  0.86596674  0.01911209     0.04300
C1835       C  0.87539677  0.84579055  0.02656532    -0.12200
C1836       C  0.89622708  0.84599153  0.00369455    -0.07800
C1837       C  0.88631551  0.86529372  0.97072001     0.07700
C1838       C  0.85799621  0.88614124  0.96368493    -0.12900
S1839       S  0.82256668  0.86665761  0.05150382    -0.29900
H1840       H  0.88340117  0.83216786  0.05252986     0.12000
S1841       S  0.91226130  0.86735655  0.44144623    -0.27000
H1842       H  0.85189127  0.90262691  0.93985674     0.09200
H1843       H  0.70355126  0.96329177  0.45610144     0.27700
H1844       H  0.83865557  0.83967050  0.07314425     0.22500
H1845       H  0.92368587  0.83422618  0.94633071     0.27800
H1846       H  0.88412796  0.92570776  0.03430962     0.16600
C1847       C  0.74422015  0.90947926  0.08305524    -0.10700
C1848       C  0.71014727  0.90527988  0.08127201     0.15900
C1849       C  0.68632673  0.93036240  0.06544044     0.02800
C1850       C  0.69587594  0.95652170  0.04771451    -0.15000
C1851       C  0.72966036  0.96047741  0.04853331    -0.09900
C1852       C  0.75449579  0.93752828  0.06858156     0.09500
C1853       C  0.70021727  0.87569599  0.09780669     0.10500
S1854       S  0.64402334  0.93179856  0.06911912    -0.24200
H1855       H  0.67681281  0.97471896  0.03419840     0.20800
S1856       S  0.79962418  0.94401877  0.08058810    -0.29900
H1857       H  0.76317366  0.89138086  0.09711146     0.11100
C1858       C  0.67271637  0.85613149  0.07692829     0.04300
C1859       C  0.65922210  0.83340665  0.09581517    -0.12200
C1860       C  0.67457833  0.82728383  0.13451582    -0.07800
C1861       C  0.70551638  0.84325012  0.15379696     0.07700
C1862       C  0.71718652  0.86805285  0.13575983    -0.12900
S1863       S  0.65595763  0.86218824  0.52968264    -0.29900
H1864       H  0.63570502  0.82158531  0.08046116     0.12000
S1865       S  0.73174336  0.83268992  0.20097641    -0.27000
H1866       H  0.73944023  0.88179776  0.15165546     0.09200
H1867       H  0.79778304  0.97812861  0.07823206     0.27700
H1868       H  0.63454690  0.83500402  0.52436667     0.22500
H1869       H  0.72200985  0.79982753  0.19801636     0.27800
H1870       H  0.65280576  0.91632502  0.10439028     0.16600
C1871       C  0.63077885  0.74371901  0.04687770    -0.10700
C1872       C  0.66440170  0.73225565  0.05480137     0.15900
C1873       C  0.68712336  0.73450154  0.09208087     0.02800
C1874       C  0.67549347  0.74704253  0.12047271    -0.15000
C1875       C  0.64249415  0.76010847  0.11233802    -0.09900
C1876       C  0.61986553  0.75843864  0.07500651     0.09500
C1877       C  0.67546061  0.72025085  0.02310116     0.10500
S1878       S  0.73194780  0.72482665  0.10476275    -0.24200
H1879       H  0.69332798  0.74952699  0.14881029     0.20800
S1880       S  0.57883756  0.77849428  0.06211215    -0.29900
H1881       H  0.61360850  0.74250483  0.01811181     0.11100
C1882       C  0.68643561  0.68787083  0.02122822     0.04300
C1883       C  0.69659029  0.67806603  0.99053552    -0.12200
C1884       C  0.69719475  0.70226568  0.46420894    -0.07800
C1885       C  0.68614532  0.73463021  0.46615769     0.07700
C1886       C  0.67762533  0.74478604  0.49774398    -0.12900
S1887       S  0.68542828  0.65843554  0.05643884    -0.29900
H1888       H  0.70460946  0.65312921  0.98866010     0.12000
S1889       S  0.68271947  0.76438398  0.42996924    -0.27000
H1890       H  0.66952052  0.76975214  0.49936900     0.09200
H1891       H  0.56935225  0.77236929  0.02308948     0.27700
H1892       H  0.69850829  0.63192994  0.04134502     0.22500
H1893       H  0.67568252  0.74267064  0.39939930     0.27800
H1894       H  0.73551845  0.73377755  0.07010762     0.16600
C1895       C  0.80684930  0.73232231  0.45678232    -0.10700
C1896       C  0.82969555  0.71738519  0.48867593     0.15900
C1897       C  0.82004099  0.68814286  0.50204159     0.02800
C1898       C  0.78807783  0.67448401  0.48283890    -0.15000
C1899       C  0.76605377  0.68893857  0.45001135    -0.09900
C1900       C  0.77576593  0.71816500  0.43697462     0.09500
C1901       C  0.86067987  0.73187913  0.00241919     0.10500
S1902       S  0.84643349  0.66425627  0.03803381    -0.24200
H1903       H  0.78045123  0.65229006  0.49317005     0.20800
S1904       S  0.74960830  0.73870409  0.39509989    -0.29900
H1905       H  0.81371431  0.75501337  0.44666482     0.11100
C1906       C  0.88499819  0.73942944  0.48548562     0.04300
C1907       C  0.91165304  0.76155179  0.49910776    -0.12200
C1908       C  0.91576463  0.77512443  0.02940437    -0.07800
C1909       C  0.89689317  0.76608176  0.05311652     0.07700
C1910       C  0.86912697  0.74500633  0.03903583    -0.12900
S1911       S  0.87853935  0.71934666  0.44062518    -0.29900
H1912       H  0.92711917  0.76793381  0.48189193     0.12000
S1913       S  0.90575044  0.78116192  0.10073065    -0.27000
H1914       H  0.85315926  0.73989517  0.05612355     0.09200
H1915       H  0.73736358  0.71042499  0.37411345     0.27700
H1916       H  0.90719643  0.73219549  0.43367903     0.22500
H1917       H  0.93240895  0.80217669  0.10170836     0.27800
H1918       H  0.87699440  0.67504087  0.03379009     0.16600
N1919       N  0.73115151  0.67243104  0.92777833    -0.02800
C1920       C  0.70091251  0.68551274  0.92725584    -0.00200
C1921       C  0.67486082  0.67259061  0.89763038    -0.23100
C1922       C  0.68963951  0.65083434  0.87943942    -0.23300
C1923       C  0.72427711  0.65068528  0.89891121    -0.00300
H1924       H  0.64781676  0.67594723  0.89232410     0.13500
H1925       H  0.67605488  0.63413529  0.85731147     0.13500
N1926       N  0.63980590  0.78334933  0.64468661    -0.02800
C1927       C  0.65967982  0.80968103  0.65887520    -0.00200
C1928       C  0.65755845  0.81804884  0.69377254    -0.23100
C1929       C  0.63648961  0.79582935  0.70177982    -0.23300
C1930       C  0.62536363  0.77486574  0.67119082    -0.00300
H1931       H  0.66869275  0.83898969  0.71080283     0.13500
H1932       H  0.62754990  0.79684633  0.72585967     0.13500
N1933       N  0.75252722  0.99346243  0.50339148    -0.02800
C1934       C  0.73893559  0.99186523  0.53189667    -0.00200
C1935       C  0.72767922  0.02240972  0.53861944    -0.23100
C1936       C  0.73242058  0.54341303  0.01464153    -0.23300
C1937       C  0.74865173  0.52478059  0.99470326    -0.00300
H1938       H  0.71494457  0.02859212  0.55882333     0.13500
H1939       H  0.72601195  0.56903602  0.01088400     0.13500
N1940       N  0.93982325  0.80499152  0.54175635    -0.02800
C1941       C  0.93209563  0.83385546  0.52330257    -0.00200
C1942       C  0.96122622  0.85214052  0.52988170    -0.23100
C1943       C  0.98772334  0.83381838  0.55268948    -0.23300
C1944       C  0.97401474  0.80493119  0.55952179    -0.00300
H1945       H  0.96273965  0.87695488  0.52118023     0.13500
H1946       H  0.01383708  0.84164791  0.56497039     0.13500
N1947       N  0.69328444  0.50052188  0.79471764    -0.02800
C1948       C  0.69379580  0.97778820  0.77027618    -0.00200
C1949       C  0.72609855  0.96671859  0.77271742    -0.23100
C1950       C  0.74903729  0.98665287  0.79782339    -0.23300
C1951       C  0.72710352  0.50487339  0.81266844    -0.00300
H1952       H  0.73230149  0.94475423  0.76012462     0.13500
H1953       H  0.77643092  0.98349832  0.80814308     0.13500
N1954       N  0.48987431  0.64056630  0.68867264    -0.02800
C1955       C  0.95805693  0.62892785  0.68512077    -0.00200
C1956       C  0.93474402  0.64040218  0.65212022    -0.23100
C1957       C  0.95243002  0.65924682  0.63481119    -0.23300
C1958       C  0.48617792  0.65962559  0.65797479    -0.00300
H1959       H  0.90735614  0.63781470  0.64335025     0.13500
H1960       H  0.94118147  0.67446687  0.61037115     0.13500
N1961       N  0.88768562  0.53671006  0.89309507    -0.02800
C1962       C  0.91625024  0.01237712  0.91369079    -0.00200
C1963       C  0.91764255  0.00419207  0.94979029    -0.23100
C1964       C  0.89378778  0.02335588  0.95834349    -0.23300
C1965       C  0.87460639  0.54147578  0.92160165    -0.00300
H1966       H  0.93178543  0.98417111  0.96646372     0.13500
H1967       H  0.88600070  0.02088339  0.98308495     0.13500
N1968       N  0.49059246  0.83503942  0.73065104    -0.02800
C1969       C  0.96724444  0.84248088  0.74792972    -0.00200
C1970       C  0.94269146  0.81876536  0.74114756    -0.23100
C1971       C  0.95137618  0.79536529  0.71956674    -0.23300
C1972       C  0.48112157  0.80558281  0.71384460    -0.00300
H1973       H  0.92129702  0.81819469  0.75163046     0.13500
H1974       H  0.93791653  0.77291420  0.70974927     0.13500
In1975     In  0.77357738  0.56309854  0.90500214     1.36900
C1976       C  0.75879794  0.53770758  0.96331039     0.78300
O1977       O  0.82159691  0.56949168  0.88857858    -0.60200
O1978       O  0.82536595  0.54712258  0.94052025    -0.51100
C1979       C  0.74237320  0.52721737  0.84437077     0.70900
O1980       O  0.72767436  0.53605022  0.86749810    -0.45900
C1981       C  0.74590217  0.62239576  0.89719711     0.75700
O1982       O  0.76433986  0.52019876  0.93810507    -0.57800
O1983       O  0.77442451  0.61646033  0.92152006    -0.47900
O1984       O  0.76140609  0.56777295  0.95892097    -0.54200
C1985       C  0.84010664  0.55424903  0.91712144     0.85800
O1986       O  0.77237827  0.53733369  0.85181736    -0.56100
O1987       O  0.73463094  0.59966668  0.87399269    -0.59400
In1988     In  0.52647132  0.74873382  0.65090380     1.36900
C1989       C  0.49875649  0.78549393  0.69300327     0.78300
O1990       O  0.52292170  0.78927168  0.61018954    -0.60200
O1991       O  0.98109555  0.75682683  0.59818903    -0.51100
C1992       C  0.59281842  0.75723977  0.66460966     0.70900
O1993       O  0.57917654  0.75604150  0.69018106    -0.45900
C1994       C  0.50834741  0.68722214  0.65624040     0.75700
O1995       O  0.52819768  0.79067461  0.69193131    -0.57800
O1996       O  0.50708338  0.70007419  0.62528968    -0.47900
O1997       O  0.98453037  0.76103167  0.67437326    -0.54200
C1998       C  0.99324618  0.78222929  0.58931221     0.85800
O1999       O  0.57383580  0.74759433  0.63270294    -0.56100
O2000       O  0.52441717  0.70363669  0.68497349    -0.59400
C2001       C  0.96368241  0.97522240  0.85148476    -0.10700
C2002       C  0.94454033  0.94691348  0.83904328     0.15900
C2003       C  0.91632977  0.94079927  0.85121212     0.02800
C2004       C  0.90884510  0.96212014  0.87657404    -0.15000
C2005       C  0.92807895  0.99020284  0.88931325    -0.09900
C2006       C  0.95562897  0.99706581  0.87634785     0.09500
C2007       C  0.95608586  0.92233750  0.81661374     0.10500
S2008       S  0.88855693  0.90642616  0.83508719    -0.24200
H2009       H  0.88718508  0.95720885  0.88577418     0.20800
S2010       S  0.98167861  0.03274545  0.89055896    -0.29900
H2011       H  0.98545516  0.97991958  0.84245486     0.11100
C2012       C  0.95507152  0.92794494  0.77912573     0.04300
C2013       C  0.96120092  0.90185969  0.75759625    -0.12200
C2014       C  0.96836855  0.87057463  0.77307580    -0.07800
C2015       C  0.97214664  0.86581848  0.81149072     0.07700
C2016       C  0.96596716  0.89165608  0.83273593    -0.12900
S2017       S  0.94341666  0.96743049  0.75778801    -0.29900
H2018       H  0.95848861  0.90534562  0.72814222     0.12000
S2019       S  0.98355975  0.82707630  0.83478860    -0.27000
H2020       H  0.96761558  0.88752427  0.86181832     0.09200
H2021       H  0.97337638  0.03993217  0.92323576     0.27700
H2022       H  0.95128457  0.96055632  0.72469680     0.22500
H2023       H  0.00137570  0.81476614  0.81142816     0.27800
H2024       H  0.89230506  0.90439530  0.79915457     0.16600
C2025       C  0.91730558  0.59761469  0.83852274    -0.10700
C2026       C  0.90522323  0.58417826  0.80207922     0.15900
C2027       C  0.88109732  0.55882505  0.79502020     0.02800
C2028       C  0.87186843  0.54594617  0.82491323    -0.15000
C2029       C  0.88600610  0.55779973  0.86190530    -0.09900
C2030       C  0.90748756  0.58512475  0.86808241     0.09500
C2031       C  0.91963503  0.59591702  0.77282630     0.10500
S2032       S  0.86241179  0.54085889  0.74895261    -0.24200
H2033       H  0.85510888  0.52517636  0.81973769     0.20800
S2034       S  0.92598086  0.60270155  0.91425534    -0.29900
H2035       H  0.93553305  0.61727117  0.84433062     0.11100
C2036       C  0.91470993  0.62825277  0.75969145     0.04300
C2037       C  0.92872354  0.63827124  0.73216767    -0.12200
C2038       C  0.94717904  0.61667173  0.71671369    -0.07800
C2039       C  0.95186098  0.58418630  0.72962543     0.07700
C2040       C  0.93870917  0.57439883  0.75800186    -0.12900
S2041       S  0.88924470  0.65647887  0.77663126    -0.29900
H2042       H  0.92472265  0.66306312  0.72193522     0.12000
S2043       S  0.97290455  0.55373760  0.71011371    -0.27000
H2044       H  0.94262258  0.54950764  0.76797385     0.09200
H2045       H  0.89526001  0.60286218  0.92245527     0.27700
H2046       H  0.88973447  0.68228495  0.75237197     0.22500
H2047       H  0.96244012  0.56655359  0.67342297     0.27800
H2048       H  0.86379897  0.56905347  0.72849670     0.16600
C2049       C  0.63950421  0.57621746  0.76714511    -0.10700
C2050       C  0.60857055  0.56602499  0.77055949     0.15900
C2051       C  0.60698167  0.53511403  0.78627556     0.02800
C2052       C  0.63613406  0.51500104  0.79734903    -0.15000
C2053       C  0.66645468  0.52428942  0.79136247    -0.09900
C2054       C  0.66814592  0.55560915  0.77657290     0.09500
C2055       C  0.57768343  0.58561174  0.75082105     0.10500
S2056       S  0.56788212  0.51838247  0.78913239    -0.24200
H2057       H  0.63450527  0.49096897  0.80827805     0.20800
S2058       S  0.70493461  0.56798389  0.76449668    -0.29900
H2059       H  0.64030279  0.59950787  0.75413700     0.11100
C2060       C  0.56430938  0.60974209  0.76918941     0.04300
C2061       C  0.53557363  0.62812946  0.74829725    -0.12200
C2062       C  0.52082792  0.62353049  0.70922268    -0.07800
C2063       C  0.53489776  0.59986730  0.69084352     0.07700
C2064       C  0.56295434  0.58115227  0.71182773    -0.12900
S2065       S  0.58376864  0.61682455  0.81912872    -0.29900
H2066       H  0.52440791  0.64600644  0.76222984     0.12000
S2067       S  0.51608992  0.59217439  0.64083181    -0.27000
H2068       H  0.57361024  0.56283020  0.69788335     0.09200
H2069       H  0.69473074  0.60046662  0.75548809     0.27700
H2070       H  0.56299656  0.64343784  0.82157945     0.22500
H2071       H  0.04071968  0.56911390  0.63790123     0.27800
H2072       H  0.55073212  0.54799246  0.78901610     0.16600
C2073       C  0.60330590  0.94565480  0.72566795    -0.10700
C2074       C  0.60684937  0.91479323  0.74259299     0.15900
C2075       C  0.63979579  0.90352533  0.76352744     0.02800
C2076       C  0.66723783  0.92470925  0.77154035    -0.15000
C2077       C  0.66351824  0.95638066  0.75685736    -0.09900
C2078       C  0.63153971  0.96604801  0.73139989     0.09500
C2079       C  0.57606610  0.89525175  0.73944124     0.10500
S2080       S  0.64875152  0.86247415  0.78107892    -0.24200
H2081       H  0.69185718  0.91633579  0.78985014     0.20800
S2082       S  0.62520234  0.00305146  0.70432586    -0.29900
H2083       H  0.57840774  0.95394971  0.70802408     0.11100
C2084       C  0.56884737  0.88516894  0.77197281     0.04300
C2085       C  0.54198398  0.86374300  0.76826387    -0.12200
C2086       C  0.52013464  0.85418932  0.73269502    -0.07800
C2087       C  0.52557281  0.86644751  0.70001301     0.07700
C2088       C  0.55402422  0.88613404  0.70369549    -0.12900
S2089       S  0.59245218  0.90103075  0.81816043    -0.29900
H2090       H  0.53722884  0.85508663  0.79321927     0.12000
S2091       S  0.49513344  0.85900473  0.65387763    -0.27000
H2092       H  0.55897112  0.89476867  0.67876895     0.09200
H2093       H  0.65850195  0.50227426  0.70942241     0.28100
H2094       H  0.57559542  0.88335878  0.83870193     0.22500
H2095       H  0.51387631  0.87338497  0.63300529     0.27800
H2096       H  0.62045425  0.84821193  0.75428461     0.16600
C2097       C  0.78033429  0.91085494  0.97529920    -0.10700
C2098       C  0.81645463  0.91747046  0.48731850     0.15900
C2099       C  0.82963958  0.94867727  0.49946860     0.02800
C2100       C  0.80751473  0.97402486  0.50109062    -0.15000
C2101       C  0.77251184  0.96873352  0.49263436    -0.09900
C2102       C  0.75820051  0.93618868  0.97778757     0.09500
C2103       C  0.83971158  0.88936095  0.48968478     0.10500
S2104       S  0.87466713  0.95707522  0.51641015    -0.24200
H2105       H  0.81797825  0.99744889  0.51220520     0.20800
S2106       S  0.71318543  0.92812367  0.96215698    -0.29900
H2107       H  0.77006786  0.88707790  0.96541529     0.11100
C2108       C  0.84646291  0.86727268  0.51984987     0.04300
C2109       C  0.87539733  0.84722767  0.52825593    -0.12200
C2110       C  0.89723137  0.84779780  0.50651875    -0.07800
C2111       C  0.88803628  0.86716267  0.47360049     0.07700
C2112       C  0.85970812  0.88809057  0.46583404    -0.12900
S2113       S  0.82059865  0.86702261  0.55040821    -0.29900
H2114       H  0.88259067  0.83351548  0.55385895     0.12000
S2115       S  0.90972894  0.86566801  0.93775822    -0.27000
H2116       H  0.85428103  0.90468307  0.44227577     0.09200
H2117       H  0.70258804  0.96080840  0.95617656     0.27700
H2118       H  0.83671786  0.84034382  0.57262272     0.22500
H2119       H  0.92571693  0.83574981  0.45019494     0.27800
H2120       H  0.88466010  0.92751525  0.53562928     0.16600
C2121       C  0.74681215  0.91064843  0.58400600    -0.10700
C2122       C  0.71305448  0.90665868  0.58347371     0.15900
C2123       C  0.68926229  0.93199499  0.56866350     0.02800
C2124       C  0.69831965  0.95815133  0.55050822    -0.15000
C2125       C  0.73178215  0.96196853  0.55016283    -0.09900
C2126       C  0.75676456  0.93879655  0.56937303     0.09500
C2127       C  0.70343179  0.87711381  0.60037571     0.10500
S2128       S  0.64776675  0.93383148  0.57446980    -0.24200
H2129       H  0.67920410  0.97652770  0.53775807     0.20800
S2130       S  0.80180643  0.94528256  0.58054532    -0.29900
H2131       H  0.76583732  0.89239453  0.59740111     0.11100
C2132       C  0.67533671  0.85795019  0.58016567     0.04300
C2133       C  0.66206726  0.83554854  0.59961394    -0.12200
C2134       C  0.67803923  0.82937697  0.63820168    -0.07800
C2135       C  0.70932879  0.84501393  0.65681475     0.07700
C2136       C  0.72099448  0.86940926  0.63818905    -0.12900
S2137       S  0.65459323  0.86007804  0.02627649    -0.29900
H2138       H  0.63820490  0.82410662  0.58483640     0.12000
S2139       S  0.73585662  0.83469098  0.70394037    -0.27000
H2140       H  0.74358744  0.88291227  0.65356862     0.09200
H2141       H  0.79993974  0.97942719  0.57902440     0.27700
H2142       H  0.63326801  0.83279534  0.02043454     0.22500
H2143       H  0.72575468  0.80195712  0.70155699     0.27800
H2144       H  0.65772077  0.91838442  0.60981395     0.16600
C2145       C  0.63412463  0.74637103  0.55100254    -0.10700
C2146       C  0.66775247  0.73500117  0.55871547     0.15900
C2147       C  0.69057043  0.73706033  0.59596602     0.02800
C2148       C  0.67899924  0.74928501  0.62453959    -0.15000
C2149       C  0.64599976  0.76230726  0.61661145    -0.09900
C2150       C  0.62328272  0.76082405  0.57931538     0.09500
C2151       C  0.67862331  0.72307823  0.52686291     0.10500
S2152       S  0.73542856  0.72754902  0.60844536    -0.24200
H2153       H  0.69689759  0.75164900  0.65285402     0.20800
S2154       S  0.58228617  0.78093565  0.56666286    -0.29900
H2155       H  0.61690170  0.74532530  0.52225838     0.11100
C2156       C  0.68928508  0.69063197  0.52472785     0.04300
C2157       C  0.69899986  0.68077328  0.49375807    -0.12200
C2158       C  0.69466414  0.69946176  0.96085882    -0.07800
C2159       C  0.68305956  0.73167977  0.96240431     0.07700
C2160       C  0.67433346  0.74185295  0.99384566    -0.12900
S2161       S  0.68858546  0.66122820  0.56008658    -0.29900
H2162       H  0.70667235  0.65575745  0.49163236     0.12000
S2163       S  0.67896087  0.76122093  0.92581090    -0.27000
H2164       H  0.66589695  0.76673782  0.99521178     0.09200
H2165       H  0.57206945  0.77381760  0.52782773     0.27700
H2166       H  0.70224733  0.63492525  0.54530955     0.22500
H2167       H  0.67360928  0.73930557  0.89562222     0.27800
H2168       H  0.73879310  0.73582128  0.57349934     0.16600
C2169       C  0.80401001  0.73060891  0.95364778    -0.10700
C2170       C  0.82735732  0.71553907  0.98507506     0.15900
C2171       C  0.81826956  0.68592789  0.99822193     0.02800
C2172       C  0.78626324  0.67217321  0.97940737    -0.15000
C2173       C  0.76377392  0.68672255  0.94692017    -0.09900
C2174       C  0.77305079  0.71618582  0.93393822     0.09500
C2175       C  0.86295634  0.73367394  0.50653977     0.10500
S2176       S  0.84730406  0.66697938  0.54284991    -0.24200
H2177       H  0.77905182  0.64972687  0.98963626     0.20800
S2178       S  0.74673305  0.73653506  0.89199719    -0.29900
H2179       H  0.81050213  0.75350492  0.94361748     0.11100
C2180       C  0.88203029  0.73810386  0.98066999     0.04300
C2181       C  0.90893255  0.75995801  0.99416716    -0.12200
C2182       C  0.91761190  0.77729941  0.53391000    -0.07800
C2183       C  0.89824854  0.76848802  0.55717021     0.07700
C2184       C  0.87062548  0.74730668  0.54283928    -0.12900
S2185       S  0.87438423  0.71900030  0.93506582    -0.29900
H2186       H  0.92394016  0.76660434  0.97654594     0.12000
S2187       S  0.90631560  0.78404872  0.60448396    -0.27000
H2188       H  0.85416752  0.74250133  0.55945041     0.09200
H2189       H  0.73382535  0.70824056  0.87139247     0.27700
H2190       H  0.90282558  0.73185716  0.92766361     0.22500
H2191       H  0.93294928  0.80516807  0.60567570     0.27800
H2192       H  0.87831481  0.67731439  0.53939443     0.16600
loop_ 
_geom_bond_atom_site_label_1 
_geom_bond_atom_site_label_2 
_geom_bond_distance 
_geom_bond_site_symmetry_2 
_ccdc_geom_bond_type 
N1            C5   1.357       .  A
N1            C2   1.355       .  A
N1          C255   1.438       .  S
C2            C3   1.381       .  A
C2          C240   1.477       .  S
C3            C4   1.376       .  A
C3            H6   1.082       .  S
C4            C5   1.385       .  A
C4            H7   1.083       .  S
C5           C63   1.477       .  S
N8           C12   1.365       .  A
N8            C9   1.364       .  A
N8          C231   1.441       .  S
C9           C10   1.379       .  A
C9          C216   1.497       .  S
C10          C11   1.371       .  A
C10          H13   1.082       .  S
C11          C12   1.385       .  A
C11          H14   1.082       .  S
C12          C74   1.487       .  S
N15          C16   1.363       .  A
N15         C841   1.358   1_554  A
N15         C183   1.442   1_554  S
C16          C17   1.385       .  A
C16         C207   1.491       .  S
C17         C840   1.374       .  A
C17          H20   1.082       .  S
C18          C19   1.380       .  A
C18         C839   1.373       .  A
C18          H21   1.083       .  S
C19         N837   1.358   1_545  A
C19          C58   1.473       .  S
N22          C26   1.357       .  A
N22          C23   1.359       .  A
N22         C264   1.439       .  S
C23          C24   1.382       .  A
C23         C192   1.486       .  S
C24          C25   1.375       .  A
C24          H27   1.083       .  S
C25          C26   1.383       .  A
C25          H28   1.082       .  S
C26          C80   1.473       .  S
N29          C33   1.359       .  A
N29         C578   1.364   1_545  A
N29         C135   1.448       .  S
C30         N577   1.363       .  A
C30          C31   1.386       .  A
C30         C159   1.488       .  S
C31          C32   1.372       .  A
C31          H34   1.082       .  S
C32         C581   1.378       .  A
C32          H35   1.082       .  S
C33         C580   1.378   1_545  A
C33          C61   1.471       .  S
N36          C40   1.362       .  A
N36        C1133   1.361       .  A
N36         C144   1.441   1_655  S
C37        N1132   1.361       .  A
C37          C38   1.381       .  A
C37         C120   1.489       .  S
C38          C39   1.374       .  A
C38          H41   1.082       .  S
C39        C1136   1.383       .  A
C39          H42   1.083       .  S
C40        C1135   1.383       .  A
C40          C76   1.483   1_655  S
N43          C47   1.357       .  A
N43         C592   1.353       .  A
N43         C111   1.439       .  S
C44         N591   1.354       .  A
C44          C45   1.379       .  A
C44          C87   1.477       .  S
C45          C46   1.375       .  A
C45          H48   1.082       .  S
C46         C595   1.386       .  A
C46          H49   1.082       .  S
C47         C594   1.386       .  A
C47          C67   1.478       .  S
N50          C54   1.360       .  A
N50        C1147   1.357       .  A
N50         C168   1.442   1_655  S
C51        N1146   1.357       .  A
C51          C52   1.380       .  A
C51          C96   1.479       .  S
C52          C53   1.373       .  A
C52          H55   1.082       .  S
C53        C1150   1.383       .  A
C53          H56   1.082       .  S
C54        C1149   1.383       .  A
C54          C71   1.476       .  S
In57         O59   2.293       .  S
In57         O60   2.221       .  S
In57         O68   2.241       .  S
In57         O62   2.257       .  S
In57         O64   2.264       .  S
In57         O65   2.277       .  S
In57         O66   2.237       .  S
In57         O69   2.234       .  S
C58          O64   1.261       .  A
C58          O66   1.259       .  A
O59          C67   1.263       .  A
O60          C67   1.258       .  A
C61          O68   1.261       .  A
C61          O62   1.260       .  A
C63          O65   1.260       .  A
C63          O69   1.257       .  A
In70         O72   2.237       .  S
In70         O81   2.282       .  S
In70         O75   2.225       .  S
In70         O77   2.289       .  S
In70         O78   2.249       .  S
In70         O82   2.276       .  S
In70       O1169   2.273   1_455  S
In70       O1175   2.234   1_455  S
C71          O77   1.257   1_655  A
C71        O1175   1.255       .  A
O72        C1176   1.256   1_455  A
O73       In1166   2.274       .  S
O73          C80   1.257       .  A
C74          O81   1.263       .  A
C74          O75   1.264       .  A
C76          O78   1.263       .  A
C76          O82   1.262       .  A
O79       In1166   2.234       .  S
O79        C1167   1.254       .  A
C80        O1168   1.256       .  A
C83          C84   1.405       .  A
C83          C88   1.405       .  A
C83          H93   1.083       .  S
C84          C85   1.412       .  A
C84          C89   1.481       .  S
C85          C86   1.394       .  A
C85          S90   1.805       .  S
C86          C87   1.401       .  A
C86          H91   1.084       .  S
C87          C88   1.412       .  A
C88          S92   1.803       .  S
C89          C94   1.410       .  A
C89          C98   1.401       .  A
S90         H106   1.406       .  S
S92         H103   1.404       .  S
C94          C95   1.408       .  A
C94          S99   1.806       .  S
C95          C96   1.405       .  A
C95         H100   1.083       .  S
C96          C97   1.412       .  A
C97          C98   1.395       .  A
C97         S101   1.805       .  S
C98         H102   1.084       .  S
S99         H104   1.407       .  S
S101        H105   1.405       .  S
C107        C108   1.403       .  A
C107        C112   1.398       .  A
C107        H117   1.083       .  S
C108        C109   1.415       .  A
C108        C113   1.491       .  S
C109        C110   1.404       .  A
C109        S114   1.802       .  S
C110        C111   1.403       .  A
C110        H115   1.083       .  S
C111        C112   1.411       .  A
C112        S116   1.799       .  S
C113        C118   1.410       .  A
C113        C122   1.407       .  A
S114        H130   1.406       .  S
S116        H127   1.405       .  S
C118        C119   1.403       .  A
C118        S123   1.807       .  S
C119        C120   1.405       .  A
C119        H124   1.083       .  S
C120        C121   1.414       .  A
C121        C122   1.406       .  A
C121        S125   1.800       .  S
C122        H126   1.084       .  S
S123        H128   1.406       .  S
S125        H129   1.405       .  S
C131        C132   1.399       .  A
C131        C136   1.401       .  A
C131        H141   1.083       .  S
C132        C133   1.415       .  A
C132        C137   1.485       .  S
C133        C134   1.407       .  A
C133        S138   1.805       .  S
C134        C135   1.406       .  A
C134        H139   1.083   1_545  S
C135        C136   1.417       .  A
C136        S140   1.808       .  S
C137        C142   1.411       .  A
C137        C146   1.400       .  A
S138        H154   1.403       .  S
S140        H151   1.406       .  S
C142        C143   1.411       .  A
C142        S147   1.804       .  S
C143        C144   1.404       .  A
C143        H148   1.082       .  S
C144        C145   1.413       .  A
C145        C146   1.399       .  A
C145        S149   1.807       .  S
C146        H150   1.083       .  S
S147        H152   1.407       .  S
S149       H1249   1.407       .  S
H153       S1245   1.407       .  S
C155        C156   1.407       .  A
C155        C160   1.406       .  A
C155        H165   1.084       .  S
C156        C157   1.412       .  A
C156        C161   1.487       .  S
C157        C158   1.393       .  A
C157        S162   1.806       .  S
C158        C159   1.405       .  A
C158        H163   1.084       .  S
C159        C160   1.415       .  A
C160        S164   1.803       .  S
C161        C166   1.413       .  A
C161        C170   1.405       .  A
S162        H178   1.405       .  S
S164        H723   1.406       .  S
C166        C167   1.398       .  A
C166        S171   1.810       .  S
C167        C168   1.401       .  A
C167        H172   1.080       .  S
C168        C169   1.411       .  A
C169        C170   1.407       .  A
C169        S173   1.806   1_455  S
C170        H174   1.082       .  S
S171        H176   1.407       .  S
S173        H177   1.407   1_655  S
H175        S712   1.406       .  S
C179        C184   1.405       .  A
C179        C454   1.405       .  A
C179        H189   1.084       .  S
C180        C181   1.413   1_556  A
C180        C453   1.405       .  A
C180        C185   1.481       .  S
C181        C182   1.396       .  A
C181        S186   1.804       .  S
C182        C183   1.403   1_554  A
C182        H187   1.084       .  S
C183        C458   1.413       .  A
C184        C457   1.412       .  A
C184        S188   1.801       .  S
C185        C190   1.409   1_556  A
C185        C194   1.403       .  A
S186        H202   1.406       .  S
S188        H199   1.407       .  S
C190        C191   1.399       .  A
C190        S195   1.807       .  S
C191        C192   1.401       .  A
C191        H196   1.081       .  S
C192        C193   1.415   1_554  A
C193        C194   1.402       .  A
C193        S471   1.802       .  S
C194        H198   1.087       .  S
S195        H200   1.407       .  S
S197        C467   1.803       .  S
S197        H475   1.407       .  S
H201        S471   1.407       .  S
C203        C204   1.407       .  A
C203        C208   1.406       .  A
C203        H213   1.084       .  S
C204        C205   1.415       .  A
C204        C209   1.492       .  S
C205        C206   1.396       .  A
C205        S210   1.806       .  S
C206        C207   1.404       .  A
C206        H211   1.084       .  S
C207        C208   1.416       .  A
C208        S212   1.801       .  S
C209        C214   1.412       .  A
C209        C218   1.404       .  A
S210        H226   1.407       .  S
S212        H223   1.406       .  S
C214        C215   1.402       .  A
C214        S493   1.808       .  S
C215        C216   1.405       .  A
C215        H220   1.078       .  S
C216        C217   1.417       .  A
C217        C218   1.403       .  A
C217        S221   1.802       .  S
C218        H222   1.085       .  S
S219        C488   1.808       .  S
S219        H224   1.408       .  S
S221        H225   1.407       .  S
C227        C228   1.407       .  A
C227        C232   1.406       .  A
C227        H237   1.083       .  S
C228        C229   1.413       .  A
C228        C233   1.486       .  S
C229        C230   1.397       .  A
C229        S234   1.806       .  S
C230        C231   1.405       .  A
C230        H235   1.084       .  S
C231        C232   1.410       .  A
C232        S236   1.805       .  S
C233        C238   1.411       .  A
C233        C516   1.405   1_554  A
S234        H250   1.406       .  S
S236        H247   1.406       .  S
C238        C239   1.403   1_554  A
C238        S243   1.807       .  S
C239        C514   1.404       .  A
C239        H244   1.083       .  S
C240        C241   1.412       .  A
C240        C513   1.405       .  A
C241        C242   1.399       .  A
C241        S245   1.801       .  S
C242        C507   1.404       .  A
C242        H246   1.084       .  S
S243        H248   1.407       .  S
S245        H249   1.403       .  S
C251        C252   1.402       .  A
C251        C256   1.392       .  A
C251        H261   1.085       .  S
C252        C253   1.416       .  A
C252        C531   1.485       .  S
C253        C254   1.407       .  A
C253        S532   1.803       .  S
C254        C255   1.404       .  A
C254        H259   1.083       .  S
C255        C256   1.411       .  A
C256        S260   1.801       .  S
C257        C266   1.406       .  A
C257        C536   1.411   1_554  A
C257        C526   1.488   1_554  S
S258        C527   1.803       .  S
S258        H274   1.405       .  S
S260        H271   1.403       .  S
C262        C263   1.398       .  A
C262        C531   1.411       .  A
C262        S267   1.809       .  S
C263        C538   1.399       .  A
C263        H268   1.083       .  S
C264        C265   1.415       .  A
C264        C537   1.400       .  A
C265        C266   1.406       .  A
C265        S269   1.807       .  S
C266        H270   1.084       .  S
S267        H272   1.407       .  S
S269        H273   1.402       .  S
N275        C279   1.357       .  A
N275        C276   1.355       .  A
N275        C529   1.439       .  S
C276        C277   1.381       .  A
C276        C514   1.478       .  S
C277        C278   1.376       .  A
C277        H280   1.082       .  S
C278        C279   1.385       .  A
C278        H281   1.083       .  S
C279        C337   1.477       .  S
N282        C286   1.364       .  A
N282        C283   1.363       .  A
N282        C505   1.440       .  S
C283        C284   1.380       .  A
C283        C490   1.497       .  S
C284        C285   1.372       .  A
C284        H287   1.082       .  S
C285        C286   1.385       .  A
C285        H288   1.081       .  S
C286        C348   1.487       .  S
N289        C567   1.358       .  A
N289        C290   1.363       .  A
N289        C457   1.441       .  S
C290        C291   1.385       .  A
C290        C481   1.490       .  S
C291        C566   1.374       .  A
C291        H294   1.082       .  S
C292        C565   1.372       .  A
C292        C293   1.380   1_554  A
C292        H295   1.083       .  S
C293        N563   1.359   1_546  A
C293        C332   1.475       .  S
N296        C300   1.357       .  A
N296        C297   1.359       .  A
N296        C538   1.438       .  S
C297        C298   1.383       .  A
C297        C466   1.489       .  S
C298        C299   1.375       .  A
C298        H301   1.082       .  S
C299        C300   1.383       .  A
C299        H302   1.083       .  S
C300        C354   1.475       .  S
N303        C307   1.357       .  A
N303        C852   1.362   1_545  A
N303        C409   1.447       .  S
C304        N851   1.363       .  A
C304        C305   1.386       .  A
C304        C433   1.488       .  S
C305        C306   1.372       .  A
C305        H308   1.082       .  S
C306        C855   1.379       .  A
C306        H309   1.083       .  S
C307        C854   1.378   1_545  A
C307        C335   1.470       .  S
N310        C314   1.362       .  A
N310       C1407   1.363       .  A
N310        C418   1.441   1_655  S
C311       N1406   1.363       .  A
C311        C312   1.383       .  A
C311        C394   1.493       .  S
C312        C313   1.374       .  A
C312        H315   1.082       .  S
C313       C1410   1.382       .  A
C313        H316   1.083       .  S
C314       C1409   1.382       .  A
C314        C350   1.483   1_655  S
N317        C321   1.359       .  A
N317        C866   1.355       .  A
N317        C385   1.442       .  S
C318        N865   1.355       .  A
C318        C319   1.378       .  A
C318        C361   1.476       .  S
C319        C320   1.376       .  A
C319        H322   1.082       .  S
C320        C869   1.387       .  A
C320        H323   1.082       .  S
C321        C868   1.386       .  A
C321        C341   1.479       .  S
N324        C328   1.361       .  A
N324       C1421   1.358       .  A
N324        C442   1.445   1_655  S
C325       N1420   1.358       .  A
C325        C326   1.380       .  A
C325        C370   1.480       .  S
C326        C327   1.372       .  A
C326        H329   1.082       .  S
C327       C1424   1.383       .  A
C327        H330   1.082       .  S
C328       C1423   1.383       .  A
C328        C345   1.474       .  S
In331       O333   2.293       .  S
In331       O334   2.222       .  S
In331       O342   2.240       .  S
In331       O336   2.257       .  S
In331       O338   2.273       .  S
In331       O339   2.279       .  S
In331       O340   2.235       .  S
In331       O343   2.235       .  S
C332        O338   1.262       .  A
C332        O340   1.258       .  A
O333        C341   1.262       .  A
O334        C341   1.258       .  A
C335        O342   1.260       .  A
C335        O336   1.261       .  A
C337        O339   1.260       .  A
C337        O343   1.257       .  A
In344       O346   2.234       .  S
In344      O1443   2.279   1_455  S
In344       O355   2.280       .  S
In344       O349   2.223       .  S
In344       O351   2.283       .  S
In344       O352   2.256       .  S
In344      O1449   2.231   1_455  S
In344       O356   2.275       .  S
C345        O351   1.257   1_655  A
C345       O1449   1.255       .  A
O346       C1450   1.256   1_455  A
O347      In1440   2.278       .  S
O347        C354   1.258       .  A
C348        O355   1.264       .  A
C348        O349   1.263       .  A
C350        O352   1.263       .  A
C350        O356   1.261       .  A
O353      In1440   2.231       .  S
O353       C1441   1.255       .  A
C354       O1442   1.256       .  A
C357        C358   1.404       .  A
C357        C362   1.404       .  A
C357        H367   1.084       .  S
C358        C359   1.411       .  A
C358        C363   1.477       .  S
C359        C360   1.394       .  A
C359        S364   1.805       .  S
C360        C361   1.401       .  A
C360        H365   1.084       .  S
C361        C362   1.411       .  A
C362        S366   1.802       .  S
C363        C368   1.410       .  A
C363        C372   1.399       .  A
S364        H380   1.405       .  S
S366        H377   1.404       .  S
C368        C369   1.407       .  A
C368        S373   1.805       .  S
C369        C370   1.405       .  A
C369        H374   1.082       .  S
C370        C371   1.412       .  A
C371        C372   1.394       .  A
C371        S375   1.804       .  S
C372        H376   1.084       .  S
S373        H378   1.407       .  S
S375        H379   1.407       .  S
C381        C382   1.404       .  A
C381        C386   1.400       .  A
C381        H391   1.084       .  S
C382        C383   1.416       .  A
C382        C387   1.494       .  S
C383        C384   1.405       .  A
C383        S388   1.802       .  S
C384        C385   1.405       .  A
C384        H389   1.083       .  S
C385        C386   1.411       .  A
C386        S390   1.798       .  S
C387        C392   1.410       .  A
C387        C396   1.407       .  A
S388        H404   1.406       .  S
S390        H401   1.405       .  S
C392        C393   1.404       .  A
C392        S397   1.808       .  S
C393        C394   1.407       .  A
C393        H398   1.083       .  S
C394        C395   1.415       .  A
C395        C396   1.407       .  A
C395        S399   1.800       .  S
C396        H400   1.084       .  S
S397        H402   1.406       .  S
S399        H403   1.405       .  S
C405        C406   1.400       .  A
C405        C410   1.402       .  A
C405        H415   1.083       .  S
C406        C407   1.415       .  A
C406        C411   1.485       .  S
C407        C408   1.405       .  A
C407        S412   1.804       .  S
C408        C409   1.405       .  A
C408        H413   1.083   1_545  S
C409        C410   1.416       .  A
C410        S414   1.807       .  S
C411        C416   1.411       .  A
C411        C420   1.399       .  A
S412        H428   1.403       .  S
S414        H425   1.407       .  S
C416        C417   1.411       .  A
C416        S421   1.804       .  S
C417        C418   1.404       .  A
C417        H422   1.082       .  S
C418        C419   1.414       .  A
C419        C420   1.399       .  A
C419        S423   1.808       .  S
C420        H424   1.083       .  S
S421        H426   1.407       .  S
S423       H1523   1.407       .  S
H427       S1519   1.407       .  S
C429        C430   1.408       .  A
C429        C434   1.406       .  A
C429        H439   1.083       .  S
C430        C431   1.413       .  A
C430        C435   1.490       .  S
C431        C432   1.394       .  A
C431        S436   1.806       .  S
C432        C433   1.405       .  A
C432        H437   1.084       .  S
C433        C434   1.414       .  A
C434        S438   1.804       .  S
C435        C440   1.414       .  A
C435        C444   1.405       .  A
S436        H452   1.403       .  S
S438        H997   1.406       .  S
C440        C441   1.401       .  A
C440        S445   1.809       .  S
C441        C442   1.402       .  A
C441        H446   1.081       .  S
C442        C443   1.412       .  A
C443        C444   1.407       .  A
C443        S447   1.806   1_455  S
C444        H448   1.083       .  S
S445        H450   1.407       .  S
S447        H451   1.407   1_655  S
H449        S986   1.405       .  S
C453        C458   1.404       .  A
C453        H463   1.084       .  S
C454        C455   1.413       .  A
C454        C459   1.482       .  S
C455        C456   1.395       .  A
C455        S460   1.805       .  S
C456        C457   1.402       .  A
C456        H461   1.084       .  S
C458        S462   1.802       .  S
C459        C464   1.409       .  A
C459        C468   1.403       .  A
S460        H476   1.406       .  S
S462        H473   1.406       .  S
C464        C465   1.401       .  A
C464        S469   1.807       .  S
C465        C466   1.403       .  A
C465        H470   1.070       .  S
C466        C467   1.415       .  A
C467        C468   1.402       .  A
C468        H472   1.082       .  S
S469        H474   1.407       .  S
C477        C478   1.407       .  A
C477        C482   1.406       .  A
C477        H487   1.084       .  S
C478        C479   1.415       .  A
C478        C483   1.492       .  S
C479        C480   1.396       .  A
C479        S484   1.806       .  S
C480        C481   1.404       .  A
C480        H485   1.084       .  S
C481        C482   1.416       .  A
C482        S486   1.801       .  S
C483        C488   1.412       .  A
C483        C492   1.404       .  A
S484        H500   1.407       .  S
S486        H497   1.406       .  S
C488        C489   1.402       .  A
C489        C490   1.404       .  A
C489        H494   1.077       .  S
C490        C491   1.417       .  A
C491        C492   1.403       .  A
C491        S495   1.802       .  S
C492        H496   1.084       .  S
S493        H498   1.408       .  S
S495        H499   1.407       .  S
C501        C502   1.406       .  A
C501        C506   1.405       .  A
C501        H511   1.083       .  S
C502        C503   1.412       .  A
C502        C507   1.483       .  S
C503        C504   1.396       .  A
C503        S508   1.806       .  S
C504        C505   1.405       .  A
C504        H509   1.084       .  S
C505        C506   1.410       .  A
C506        S510   1.805       .  S
C507        C512   1.410       .  A
S508        H524   1.405       .  S
S510        H521   1.406       .  S
C512        C513   1.403       .  A
C512        S517   1.807       .  S
C513        H518   1.083       .  S
C514        C515   1.412       .  A
C515        C516   1.401       .  A
C515        S519   1.803       .  S
C516        H520   1.084   1_556  S
S517        H522   1.407       .  S
S519        H523   1.402       .  S
C525        C526   1.402       .  A
C525        C530   1.393       .  A
C525        H535   1.085       .  S
C526        C527   1.416   1_556  A
C527        C528   1.409   1_554  A
C528        C529   1.404       .  A
C528        H533   1.083       .  S
C529        C530   1.411       .  A
C530        S534   1.802       .  S
C531        C540   1.405       .  A
S532        H548   1.406       .  S
S534        H545   1.403       .  S
C536        C537   1.399   1_556  A
C536        S541   1.808       .  S
C537        H542   1.083   1_554  S
C538        C539   1.415       .  A
C539        C540   1.405       .  A
C539        S543   1.806       .  S
C540        H544   1.084       .  S
S541        H546   1.407       .  S
S543        H547   1.402       .  S
N549        C553   1.357       .  A
N549        C550   1.355       .  A
N549        C803   1.439       .  S
C550        C551   1.381       .  A
C550        C788   1.477       .  S
C551        C552   1.376       .  A
C551        H554   1.082       .  S
C552        C553   1.385       .  A
C552        H555   1.083       .  S
C553        C611   1.477       .  S
N556        C560   1.366       .  A
N556        C557   1.364       .  A
N556        C779   1.442       .  S
C557        C558   1.379       .  A
C557        C764   1.497       .  S
C558        C559   1.370       .  A
C558        H561   1.082       .  S
C559        C560   1.385       .  A
C559        H562   1.082       .  S
C560        C622   1.487       .  S
N563        C564   1.363       .  A
N563        C731   1.442   1_554  S
C564        C565   1.384   1_565  A
C564        C755   1.488       .  S
C565        H568   1.082       .  S
C566        C567   1.380       .  A
C566        H569   1.083       .  S
C567        C606   1.474       .  S
N570        C574   1.357       .  A
N570        C571   1.359       .  A
N570        C812   1.440       .  S
C571        C572   1.382       .  A
C571        C740   1.485       .  S
C572        C573   1.374       .  A
C572        H575   1.083       .  S
C573        C574   1.383       .  A
C573        H576   1.082       .  S
C574        C628   1.472       .  S
N577        C581   1.358       .  A
N577        C683   1.448       .  S
C578        C579   1.387       .  A
C578        C707   1.489       .  S
C579        C580   1.373       .  A
C579        H582   1.082       .  S
C580        H583   1.083       .  S
C581        C609   1.470       .  S
N584        C588   1.363       .  A
N584       C1681   1.361       .  A
N584        C692   1.442   1_655  S
C585       N1680   1.361       .  A
C585        C586   1.381       .  A
C585        C668   1.489       .  S
C586        C587   1.374       .  A
C586        H589   1.082       .  S
C587       C1684   1.383       .  A
C587        H590   1.083       .  S
C588       C1683   1.383       .  A
C588        C624   1.483   1_655  S
N591        C595   1.358       .  A
N591        C659   1.440       .  S
C592        C593   1.379       .  A
C592        C635   1.475   1_545  S
C593        C594   1.376       .  A
C593        H596   1.082   1_545  S
C594        H597   1.082       .  S
C595        C615   1.479       .  S
N598        C602   1.361       .  A
N598       C1695   1.357       .  A
N598        C716   1.444   1_655  S
C599       N1694   1.358       .  A
C599        C600   1.380       .  A
C599        C644   1.479       .  S
C600        C601   1.373       .  A
C600        H603   1.082       .  S
C601       C1698   1.383       .  A
C601        H604   1.082       .  S
C602       C1697   1.383       .  A
C602        C619   1.475       .  S
In605       O607   2.293       .  S
In605       O608   2.224       .  S
In605       O616   2.239       .  S
In605       O610   2.257       .  S
In605       O612   2.265       .  S
In605       O613   2.277       .  S
In605       O614   2.240       .  S
In605       O617   2.234       .  S
C606        O612   1.261       .  A
C606        O614   1.259       .  A
O607        C615   1.262       .  A
O608        C615   1.258       .  A
C609        O616   1.261       .  A
C609        O610   1.260       .  A
C611        O613   1.260       .  A
C611        O617   1.257       .  A
In618       O620   2.230       .  S
In618      O1717   2.277   1_455  S
In618       O629   2.283       .  S
In618       O623   2.221       .  S
In618       O625   2.289       .  S
In618       O626   2.250       .  S
In618      O1723   2.232   1_455  S
In618       O630   2.276       .  S
C619        O625   1.257   1_655  A
C619       O1723   1.255       .  A
O620       C1724   1.256   1_455  A
O621      In1714   2.276       .  S
O621        C628   1.259       .  A
C622        O629   1.263       .  A
C622        O623   1.263       .  A
C624        O626   1.263       .  A
C624        O630   1.261       .  A
O627      In1714   2.233       .  S
O627       C1715   1.255       .  A
C628       O1716   1.256       .  A
C631        C632   1.405       .  A
C631        C636   1.404       .  A
C631        H641   1.083       .  S
C632        C633   1.412       .  A
C632        C637   1.481       .  S
C633        C634   1.394       .  A
C633        S638   1.804       .  S
C634        C635   1.401       .  A
C634        H639   1.083       .  S
C635        C636   1.412       .  A
C636        S640   1.803   1_565  S
C637        C642   1.410       .  A
C637        C646   1.401       .  A
S638        H654   1.406       .  S
S640        H651   1.404       .  S
C642        C643   1.408       .  A
C642        S647   1.806       .  S
C643        C644   1.404       .  A
C643        H648   1.083       .  S
C644        C645   1.412       .  A
C645        C646   1.395       .  A
C645        S649   1.805       .  S
C646        H650   1.084       .  S
S647        H652   1.407       .  S
S649        H653   1.405       .  S
C655        C656   1.403       .  A
C655        C660   1.399       .  A
C655        H665   1.083       .  S
C656        C657   1.416       .  A
C656        C661   1.492       .  S
C657        C658   1.404       .  A
C657        S662   1.802       .  S
C658        C659   1.403       .  A
C658        H663   1.083       .  S
C659        C660   1.411       .  A
C660        S664   1.799       .  S
C661        C666   1.410       .  A
C661        C670   1.407       .  A
S662        H678   1.406       .  S
S664        H675   1.405       .  S
C666        C667   1.404       .  A
C666        S671   1.807       .  S
C667        C668   1.406       .  A
C667        H672   1.083       .  S
C668        C669   1.414       .  A
C669        C670   1.406       .  A
C669        S673   1.800       .  S
C670        H674   1.084       .  S
S671        H676   1.406       .  S
S673        H677   1.405       .  S
C679        C680   1.400       .  A
C679        C684   1.402       .  A
C679        H689   1.083       .  S
C680        C681   1.416       .  A
C680        C685   1.487       .  S
C681        C682   1.407       .  A
C681        S686   1.805       .  S
C682        C683   1.405       .  A
C682        H687   1.083       .  S
C683        C684   1.416       .  A
C684        S688   1.807       .  S
C685        C690   1.412       .  A
C685        C694   1.400       .  A
S686        H702   1.402       .  S
S688        H699   1.406       .  S
C690        C691   1.411       .  A
C690        S695   1.804       .  S
C691        C692   1.404       .  A
C691        H696   1.082       .  S
C692        C693   1.413       .  A
C693        C694   1.399       .  A
C693        S697   1.807       .  S
C694        H698   1.083       .  S
S695        H700   1.407       .  S
S697       H1797   1.407       .  S
H701       S1793   1.407       .  S
C703        C704   1.407       .  A
C703        C708   1.406       .  A
C703        H713   1.084       .  S
C704        C705   1.412       .  A
C704        C709   1.489       .  S
C705        C706   1.394       .  A
C705        S710   1.806       .  S
C706        C707   1.405       .  A
C706        H711   1.084       .  S
C707        C708   1.415       .  A
C708        S712   1.803   1_565  S
C709        C714   1.413       .  A
C709        C718   1.406       .  A
S710        H726   1.404       .  S
C714        C715   1.400       .  A
C714        S719   1.810       .  S
C715        C716   1.402       .  A
C715        H720   1.081       .  S
C716        C717   1.412       .  A
C717        C718   1.408       .  A
C717        S721   1.806   1_455  S
C718        H722   1.082       .  S
S719        H724   1.407       .  S
S721        H725   1.407   1_655  S
C727       C1002   1.405       .  A
C727        C732   1.405       .  A
C727        H737   1.084       .  S
C728       C1001   1.405       .  A
C728        C729   1.412       .  A
C728        C733   1.480       .  S
C729        C730   1.395       .  A
C729        S734   1.805   1_556  S
C730        C731   1.402       .  A
C730        H735   1.084   1_556  S
C731       C1006   1.413       .  A
C732       C1005   1.412       .  A
C732        S736   1.801       .  S
C733        C738   1.408   1_556  A
C733        C742   1.404       .  A
S734        H750   1.405       .  S
S736        H747   1.406       .  S
C738        C739   1.398       .  A
C738        S743   1.806       .  S
C739        C740   1.401       .  A
C739        H744   1.079       .  S
C740        C741   1.415   1_554  A
C741        C742   1.402       .  A
C741       S1019   1.803       .  S
C742        H746   1.086       .  S
S743        H748   1.407       .  S
S745       C1015   1.803       .  S
S745       H1023   1.407       .  S
H749       S1019   1.407       .  S
C751        C752   1.407       .  A
C751        C756   1.405       .  A
C751        H761   1.084       .  S
C752        C753   1.414       .  A
C752        C757   1.490       .  S
C753        C754   1.395       .  A
C753        S758   1.806       .  S
C754        C755   1.404       .  A
C754        H759   1.084       .  S
C755        C756   1.416       .  A
C756        S760   1.801       .  S
C757        C762   1.411       .  A
C757        C766   1.403       .  A
S758        H774   1.407       .  S
S760        H771   1.405       .  S
C762        C763   1.401       .  A
C762       S1041   1.808       .  S
C763        C764   1.405       .  A
C763        H768   1.078       .  S
C764        C765   1.418       .  A
C765        C766   1.402       .  A
C765        S769   1.803       .  S
C766        H770   1.084       .  S
S767       C1036   1.808       .  S
S767        H772   1.407       .  S
S769        H773   1.407       .  S
C775        C776   1.406       .  A
C775        C780   1.406       .  A
C775        H785   1.083       .  S
C776        C777   1.412       .  A
C776        C781   1.485       .  S
C777        C778   1.396       .  A
C777        S782   1.806       .  S
C778        C779   1.405       .  A
C778        H783   1.084       .  S
C779        C780   1.411       .  A
C780        S784   1.804       .  S
C781        C786   1.411       .  A
C781       C1064   1.404   1_554  A
S782        H798   1.406       .  S
S784        H795   1.407       .  S
C786        C787   1.402   1_554  A
C786        S791   1.808       .  S
C787       C1062   1.404       .  A
C787        H792   1.083       .  S
C788       C1061   1.404       .  A
C788        C789   1.412       .  A
C789        C790   1.400       .  A
C789        S793   1.803       .  S
C790       C1055   1.404       .  A
C790        H794   1.084       .  S
S791        H796   1.407       .  S
S793        H797   1.402       .  S
C799        C800   1.402       .  A
C799        C804   1.393       .  A
C799        H809   1.084       .  S
C800        C801   1.416       .  A
C800       C1079   1.488       .  S
C801        C802   1.408       .  A
C801       S1080   1.803       .  S
C802        C803   1.404       .  A
C802        H807   1.083       .  S
C803        C804   1.411       .  A
C804        S808   1.802       .  S
C805       C1084   1.412   1_554  A
C805        C814   1.406       .  A
C805       C1074   1.489   1_554  S
S806       C1075   1.803   1_554  S
S806        H822   1.405       .  S
S808        H819   1.403       .  S
C810       C1079   1.412       .  A
C810        C811   1.399       .  A
C810        S815   1.808       .  S
C811       C1086   1.400       .  A
C811        H816   1.083       .  S
C812       C1085   1.400   1_554  A
C812        C813   1.416       .  A
C813        C814   1.406       .  A
C813        S817   1.807       .  S
C814        H818   1.084       .  S
S815        H820   1.407       .  S
S817        H821   1.402       .  S
N823        C827   1.357       .  A
N823        C824   1.355       .  A
N823       C1077   1.440       .  S
C824        C825   1.381       .  A
C824       C1062   1.476       .  S
C825        C826   1.375       .  A
C825        H828   1.082       .  S
C826        C827   1.385       .  A
C826        H829   1.083       .  S
C827        C885   1.475       .  S
N830        C834   1.365       .  A
N830        C831   1.364       .  A
N830       C1053   1.441       .  S
C831        C832   1.379       .  A
C831       C1038   1.497       .  S
C832        C833   1.372       .  A
C832        H835   1.082       .  S
C833        C834   1.385       .  A
C833        H836   1.081       .  S
C834        C896   1.487       .  S
N837        C838   1.362       .  A
N837       C1005   1.441       .  S
C838        C839   1.385   1_565  A
C838       C1029   1.489       .  S
C839        H842   1.082       .  S
C840        C841   1.381   1_554  A
C840        H843   1.083       .  S
C841        C880   1.476       .  S
N844        C848   1.358       .  A
N844        C845   1.360       .  A
N844       C1086   1.439       .  S
C845        C846   1.383       .  A
C845       C1014   1.490       .  S
C846        C847   1.375       .  A
C846        H849   1.082       .  S
C847        C848   1.383       .  A
C847        H850   1.082       .  S
C848        C902   1.476       .  S
N851        C855   1.358       .  A
N851        C957   1.448       .  S
C852        C853   1.387       .  A
C852        C981   1.488       .  S
C853        C854   1.374       .  A
C853        H856   1.082       .  S
C854        H857   1.082       .  S
C855        C883   1.471       .  S
N858        C862   1.362       .  A
N858       C1955   1.361       .  A
N858        C966   1.441   1_655  S
C859       N1954   1.362       .  A
C859        C860   1.382       .  A
C859        C942   1.490       .  S
C860        C861   1.374       .  A
C860        H863   1.082       .  S
C861       C1958   1.383       .  A
C861        H864   1.083       .  S
C862       C1957   1.383       .  A
C862        C898   1.483   1_655  S
N865        C869   1.358       .  A
N865        C933   1.443       .  S
C866        C867   1.379       .  A
C866        C909   1.476   1_545  S
C867        C868   1.375       .  A
C867        H870   1.082   1_545  S
C868        H871   1.082       .  S
C869        C889   1.478       .  S
N872        C876   1.362       .  A
N872       C1969   1.358       .  A
N872        C990   1.446   1_655  S
C873       N1968   1.358       .  A
C873        C874   1.380       .  A
C873        C918   1.478       .  S
C874        C875   1.371       .  A
C874        H877   1.082       .  S
C875       C1972   1.383       .  A
C875        H878   1.082       .  S
C876       C1971   1.383       .  A
C876        C893   1.474       .  S
In879       O881   2.286       .  S
In879       O882   2.226       .  S
In879       O890   2.237       .  S
In879       O884   2.264       .  S
In879       O886   2.271       .  S
In879       O887   2.273       .  S
In879       O888   2.242       .  S
In879       O891   2.231       .  S
C880        O886   1.261       .  A
C880        O888   1.258       .  A
O881        C889   1.262       .  A
O882        C889   1.259       .  A
C883        O890   1.259       .  A
C883        O884   1.261       .  A
C885        O887   1.260       .  A
C885        O891   1.257       .  A
In892       O894   2.237       .  S
In892      O1991   2.279   1_455  S
In892       O903   2.280       .  S
In892       O897   2.227       .  S
In892       O899   2.287       .  S
In892       O900   2.251       .  S
In892      O1997   2.232   1_455  S
In892       O904   2.276       .  S
C893        O899   1.256   1_655  A
C893       O1997   1.255       .  A
O894       C1998   1.256   1_455  A
O895      In1988   2.280       .  S
O895        C902   1.258       .  A
C896        O903   1.263       .  A
C896        O897   1.263       .  A
C898        O900   1.263       .  A
C898        O904   1.262       .  A
O901      In1988   2.233       .  S
O901       C1989   1.255       .  A
C902       O1990   1.256       .  A
C905        C906   1.405       .  A
C905        C910   1.404       .  A
C905        H915   1.083       .  S
C906        C907   1.413       .  A
C906        C911   1.483       .  S
C907        C908   1.394       .  A
C907        S912   1.805       .  S
C908        C909   1.401       .  A
C908        H913   1.084       .  S
C909        C910   1.412       .  A
C910        S914   1.803   1_565  S
C911        C916   1.412       .  A
C911        C920   1.401       .  A
S912        H928   1.406       .  S
S914        H925   1.404       .  S
C916        C917   1.407       .  A
C916        S921   1.805       .  S
C917        C918   1.404       .  A
C917        H922   1.083       .  S
C918        C919   1.411       .  A
C919        C920   1.394       .  A
C919        S923   1.805       .  S
C920        H924   1.084       .  S
S921        H926   1.407       .  S
S923        H927   1.405       .  S
C929        C930   1.404       .  A
C929        C934   1.401       .  A
C929        H939   1.085       .  S
C930        C931   1.416       .  A
C930        C935   1.493       .  S
C931        C932   1.405       .  A
C931        S936   1.803       .  S
C932        C933   1.404       .  A
C932        H937   1.083       .  S
C933        C934   1.412       .  A
C934        S938   1.798       .  S
C935        C940   1.410       .  A
C935        C944   1.407       .  A
S936        H952   1.406       .  S
S938        H949   1.406       .  S
C940        C941   1.405       .  A
C940        S945   1.807       .  S
C941        C942   1.406       .  A
C941        H946   1.084       .  S
C942        C943   1.414       .  A
C943        C944   1.406       .  A
C943        S947   1.800       .  S
C944        H948   1.084       .  S
S945        H950   1.407       .  S
S947        H951   1.405       .  S
C953        C954   1.400       .  A
C953        C958   1.402       .  A
C953        H963   1.083       .  S
C954        C955   1.415       .  A
C954        C959   1.486       .  S
C955        C956   1.406       .  A
C955        S960   1.805       .  S
C956        C957   1.405       .  A
C956        H961   1.083       .  S
C957        C958   1.417       .  A
C958        S962   1.807       .  S
C959        C964   1.411       .  A
C959        C968   1.400       .  A
S960        H976   1.403       .  S
S962        H973   1.406       .  S
C964        C965   1.410       .  A
C964        S969   1.804       .  S
C965        C966   1.403       .  A
C965        H970   1.082       .  S
C966        C967   1.414       .  A
C967        C968   1.400       .  A
C967        S971   1.807       .  S
C968        H972   1.083       .  S
S969        H974   1.407       .  S
S971       H2071   1.407       .  S
H975       S2067   1.407       .  S
C977        C978   1.408       .  A
C977        C982   1.406       .  A
C977        H987   1.083       .  S
C978        C979   1.413       .  A
C978        C983   1.489       .  S
C979        C980   1.394       .  A
C979        S984   1.806       .  S
C980        C981   1.404       .  A
C980        H985   1.084       .  S
C981        C982   1.415       .  A
C982        S986   1.804   1_565  S
C983        C988   1.413       .  A
C983        C992   1.405       .  A
S984       H1000   1.403       .  S
C988        C989   1.400       .  A
C988        S993   1.809       .  S
C989        C990   1.403       .  A
C989        H994   1.080       .  S
C990        C991   1.413       .  A
C991        C992   1.408       .  A
C991        S995   1.805   1_455  S
C992        H996   1.082       .  S
S993        H998   1.407       .  S
S995        H999   1.407   1_655  S
C1001      C1006   1.404       .  A
C1001      H1011   1.084       .  S
C1002      C1003   1.413       .  A
C1002      C1007   1.483       .  S
C1003      C1004   1.396       .  A
C1003      S1008   1.805       .  S
C1004      C1005   1.402       .  A
C1004      H1009   1.084       .  S
C1006      S1010   1.801       .  S
C1007      C1012   1.409       .  A
C1007      C1016   1.404       .  A
S1008      H1024   1.406       .  S
S1010      H1021   1.406       .  S
C1012      C1013   1.400       .  A
C1012      S1017   1.807       .  S
C1013      C1014   1.403       .  A
C1013      H1018   1.070       .  S
C1014      C1015   1.415       .  A
C1015      C1016   1.403       .  A
C1016      H1020   1.082       .  S
S1017      H1022   1.407       .  S
C1025      C1026   1.406       .  A
C1025      C1030   1.406       .  A
C1025      H1035   1.084       .  S
C1026      C1027   1.414       .  A
C1026      C1031   1.490       .  S
C1027      C1028   1.395       .  A
C1027      S1032   1.806       .  S
C1028      C1029   1.404       .  A
C1028      H1033   1.084       .  S
C1029      C1030   1.416       .  A
C1030      S1034   1.801       .  S
C1031      C1036   1.411       .  A
C1031      C1040   1.403       .  A
S1032      H1048   1.407       .  S
S1034      H1045   1.406       .  S
C1036      C1037   1.401       .  A
C1037      C1038   1.405       .  A
C1037      H1042   1.076       .  S
C1038      C1039   1.417       .  A
C1039      C1040   1.402       .  A
C1039      S1043   1.802       .  S
C1040      H1044   1.084       .  S
S1041      H1046   1.408       .  S
S1043      H1047   1.407       .  S
C1049      C1050   1.406       .  A
C1049      C1054   1.406       .  A
C1049      H1059   1.083       .  S
C1050      C1051   1.412       .  A
C1050      C1055   1.485       .  S
C1051      C1052   1.396       .  A
C1051      S1056   1.806       .  S
C1052      C1053   1.405       .  A
C1052      H1057   1.084       .  S
C1053      C1054   1.410       .  A
C1054      S1058   1.805       .  S
C1055      C1060   1.411       .  A
S1056      H1072   1.406       .  S
S1058      H1069   1.406       .  S
C1060      C1061   1.403       .  A
C1060      S1065   1.807       .  S
C1061      H1066   1.083       .  S
C1062      C1063   1.412       .  A
C1063      C1064   1.400       .  A
C1063      S1067   1.804       .  S
C1064      H1068   1.084       .  S
S1065      H1070   1.407       .  S
S1067      H1071   1.402       .  S
C1073      C1074   1.402       .  A
C1073      C1078   1.393       .  A
C1073      H1083   1.084       .  S
C1074      C1075   1.417       .  A
C1075      C1076   1.409       .  A
C1076      C1077   1.404       .  A
C1076      H1081   1.083       .  S
C1077      C1078   1.411       .  A
C1078      S1082   1.802       .  S
C1079      C1088   1.406       .  A
S1080      H1096   1.406       .  S
S1082      H1093   1.402       .  S
C1084      C1085   1.399       .  A
C1084      S1089   1.808       .  S
C1085      H1090   1.083       .  S
C1086      C1087   1.415       .  A
C1087      C1088   1.405       .  A
C1087      S1091   1.807       .  S
C1088      H1092   1.084       .  S
S1089      H1094   1.407       .  S
S1091      H1095   1.402       .  S
N1097      C1101   1.357       .  A
N1097      C1098   1.355       .  A
N1097      C1351   1.438       .  S
C1098      C1099   1.381       .  A
C1098      C1336   1.477       .  S
C1099      C1100   1.376       .  A
C1099      H1102   1.082       .  S
C1100      C1101   1.385       .  A
C1100      H1103   1.083       .  S
C1101      C1159   1.477       .  S
N1104      C1108   1.366       .  A
N1104      C1105   1.364       .  A
N1104      C1327   1.442       .  S
C1105      C1106   1.379       .  A
C1105      C1312   1.498       .  S
C1106      C1107   1.371       .  A
C1106      H1109   1.082       .  S
C1107      C1108   1.385       .  A
C1107      H1110   1.082       .  S
C1108      C1170   1.488       .  S
N1111      C1937   1.358   1_554  A
N1111      C1112   1.363       .  A
N1111      C1279   1.441   1_554  S
C1112      C1113   1.385       .  A
C1112      C1303   1.491       .  S
C1113      C1936   1.375       .  A
C1113      H1116   1.082       .  S
C1114      C1935   1.373       .  A
C1114      C1115   1.380       .  A
C1114      H1117   1.083       .  S
C1115      N1933   1.358   1_545  A
C1115      C1154   1.473       .  S
N1118      C1122   1.357       .  A
N1118      C1119   1.359       .  A
N1118      C1360   1.439       .  S
C1119      C1120   1.382       .  A
C1119      C1288   1.486       .  S
C1120      C1121   1.375       .  A
C1120      H1123   1.083       .  S
C1121      C1122   1.383       .  A
C1121      H1124   1.082   1_655  S
C1122      C1176   1.473       .  S
N1125      C1129   1.358       .  A
N1125      C1674   1.364   1_545  A
N1125      C1231   1.448       .  S
C1126      N1673   1.363       .  A
C1126      C1127   1.386       .  A
C1126      C1255   1.487       .  S
C1127      C1128   1.372       .  A
C1127      H1130   1.082       .  S
C1128      C1677   1.378       .  A
C1128      H1131   1.082       .  S
C1129      C1676   1.378   1_545  A
C1129      C1157   1.470       .  S
N1132      C1136   1.362       .  A
N1132      C1240   1.441       .  S
C1133      C1134   1.381       .  A
C1133      C1216   1.489       .  S
C1134      C1135   1.374       .  A
C1134      H1137   1.082       .  S
C1135      H1138   1.083       .  S
C1136      C1172   1.484       .  S
N1139      C1143   1.357       .  A
N1139      C1688   1.353       .  A
N1139      C1207   1.439       .  S
C1140      N1687   1.354       .  A
C1140      C1141   1.379       .  A
C1140      C1183   1.476       .  S
C1141      C1142   1.376       .  A
C1141      H1144   1.082       .  S
C1142      C1691   1.386       .  A
C1142      H1145   1.082       .  S
C1143      C1690   1.386       .  A
C1143      C1163   1.478       .  S
N1146      C1150   1.360       .  A
N1146      C1264   1.442       .  S
C1147      C1148   1.380       .  A
C1147      C1192   1.479       .  S
C1148      C1149   1.373       .  A
C1148      H1151   1.082       .  S
C1149      H1152   1.082       .  S
C1150      C1167   1.476       .  S
In1153     O1155   2.292       .  S
In1153     O1156   2.222       .  S
In1153     O1164   2.240       .  S
In1153     O1158   2.257       .  S
In1153     O1160   2.263       .  S
In1153     O1161   2.277       .  S
In1153     O1162   2.238       .  S
In1153     O1165   2.233       .  S
C1154      O1160   1.261       .  A
C1154      O1162   1.259       .  A
O1155      C1163   1.263       .  A
O1156      C1163   1.258       .  A
C1157      O1164   1.261       .  A
C1157      O1158   1.260       .  A
C1159      O1161   1.261       .  A
C1159      O1165   1.257       .  A
In1166     O1168   2.237       .  S
In1166     O1177   2.284       .  S
In1166     O1171   2.225       .  S
In1166     O1173   2.290       .  S
In1166     O1174   2.249       .  S
In1166     O1178   2.277       .  S
C1167      O1173   1.257       .  A
O1169      C1176   1.257       .  A
C1170      O1177   1.263       .  A
C1170      O1171   1.264       .  A
C1172      O1174   1.263       .  A
C1172      O1178   1.262       .  A
C1179      C1180   1.405       .  A
C1179      C1184   1.405       .  A
C1179      H1189   1.083       .  S
C1180      C1181   1.412       .  A
C1180      C1185   1.481       .  S
C1181      C1182   1.394       .  A
C1181      S1186   1.805       .  S
C1182      C1183   1.401       .  A
C1182      H1187   1.084       .  S
C1183      C1184   1.412       .  A
C1184      S1188   1.803       .  S
C1185      C1190   1.410       .  A
C1185      C1194   1.401       .  A
S1186      H1202   1.406       .  S
S1188      H1199   1.404       .  S
C1190      C1191   1.408       .  A
C1190      S1195   1.805       .  S
C1191      C1192   1.405       .  A
C1191      H1196   1.083       .  S
C1192      C1193   1.412       .  A
C1193      C1194   1.395       .  A
C1193      S1197   1.805       .  S
C1194      H1198   1.084       .  S
S1195      H1200   1.407       .  S
S1197      H1201   1.405       .  S
C1203      C1204   1.403       .  A
C1203      C1208   1.399       .  A
C1203      H1213   1.083       .  S
C1204      C1205   1.415       .  A
C1204      C1209   1.490       .  S
C1205      C1206   1.404       .  A
C1205      S1210   1.802       .  S
C1206      C1207   1.403       .  A
C1206      H1211   1.083       .  S
C1207      C1208   1.411       .  A
C1208      S1212   1.799       .  S
C1209      C1214   1.409       .  A
C1209      C1218   1.407       .  A
S1210      H1226   1.406       .  S
S1212      H1223   1.405       .  S
C1214      C1215   1.403       .  A
C1214      S1219   1.807       .  S
C1215      C1216   1.405       .  A
C1215      H1220   1.083       .  S
C1216      C1217   1.414       .  A
C1217      C1218   1.406       .  A
C1217      S1221   1.800       .  S
C1218      H1222   1.084       .  S
S1219      H1224   1.406       .  S
S1221      H1225   1.405       .  S
C1227      C1228   1.399       .  A
C1227      C1232   1.401       .  A
C1227      H1237   1.083       .  S
C1228      C1229   1.415       .  A
C1228      C1233   1.485       .  S
C1229      C1230   1.407       .  A
C1229      S1234   1.804       .  S
C1230      C1231   1.406       .  A
C1230      H1235   1.083   1_545  S
C1231      C1232   1.417       .  A
C1232      S1236   1.807       .  S
C1233      C1238   1.411       .  A
C1233      C1242   1.400       .  A
S1234      H1250   1.404       .  S
S1236      H1247   1.406       .  S
C1238      C1239   1.411       .  A
C1238      S1243   1.804       .  S
C1239      C1240   1.404       .  A
C1239      H1244   1.082       .  S
C1240      C1241   1.413       .  A
C1241      C1242   1.399       .  A
C1241      S1245   1.807       .  S
C1242      H1246   1.083       .  S
S1243      H1248   1.407       .  S
C1251      C1252   1.407       .  A
C1251      C1256   1.406       .  A
C1251      H1261   1.084       .  S
C1252      C1253   1.411       .  A
C1252      C1257   1.486       .  S
C1253      C1254   1.393       .  A
C1253      S1258   1.806       .  S
C1254      C1255   1.405       .  A
C1254      H1259   1.084       .  S
C1255      C1256   1.415       .  A
C1256      S1260   1.803       .  S
C1257      C1262   1.413       .  A
C1257      C1266   1.405       .  A
S1258      H1274   1.405       .  S
S1260      H1819   1.406       .  S
C1262      C1263   1.398       .  A
C1262      S1267   1.810       .  S
C1263      C1264   1.401       .  A
C1263      H1268   1.080       .  S
C1264      C1265   1.411       .  A
C1265      C1266   1.407       .  A
C1265      S1269   1.806       .  S
C1266      H1270   1.082       .  S
S1267      H1272   1.407       .  S
S1269      H1273   1.407       .  S
H1271      S1808   1.406       .  S
C1275      C1550   1.406       .  A
C1275      C1280   1.405       .  A
C1275      H1285   1.084       .  S
C1276      C1549   1.405       .  A
C1276      C1277   1.413   1_556  A
C1276      C1281   1.481       .  S
C1277      C1278   1.396       .  A
C1277      S1282   1.805       .  S
C1278      C1279   1.402   1_554  A
C1278      H1283   1.084       .  S
C1279      C1554   1.412       .  A
C1280      C1553   1.412       .  A
C1280      S1284   1.801       .  S
C1281      C1286   1.409   1_556  A
C1281      C1290   1.403       .  A
S1282      H1298   1.406       .  S
S1284      H1295   1.406       .  S
C1286      C1287   1.399       .  A
C1286      S1291   1.807       .  S
C1287      C1288   1.402       .  A
C1287      H1292   1.081       .  S
C1288      C1289   1.415   1_554  A
C1289      C1290   1.402       .  A
C1289      S1567   1.802       .  S
C1290      H1294   1.086       .  S
S1291      H1296   1.407       .  S
S1293      C1563   1.803       .  S
S1293      H1571   1.407       .  S
H1297      S1567   1.407       .  S
C1299      C1300   1.407       .  A
C1299      C1304   1.406       .  A
C1299      H1309   1.084       .  S
C1300      C1301   1.415       .  A
C1300      C1305   1.492       .  S
C1301      C1302   1.396       .  A
C1301      S1306   1.806       .  S
C1302      C1303   1.404       .  A
C1302      H1307   1.084       .  S
C1303      C1304   1.416       .  A
C1304      S1308   1.801       .  S
C1305      C1310   1.412       .  A
C1305      C1314   1.404       .  A
S1306      H1322   1.407       .  S
S1308      H1319   1.406       .  S
C1310      C1311   1.402       .  A
C1310      S1589   1.808       .  S
C1311      C1312   1.405       .  A
C1311      H1316   1.078       .  S
C1312      C1313   1.418       .  A
C1313      C1314   1.403       .  A
C1313      S1317   1.802       .  S
C1314      H1318   1.084       .  S
S1315      C1584   1.808       .  S
S1315      H1320   1.408       .  S
S1317      H1321   1.407       .  S
C1323      C1324   1.407       .  A
C1323      C1328   1.406       .  A
C1323      H1333   1.083       .  S
C1324      C1325   1.412       .  A
C1324      C1329   1.486       .  S
C1325      C1326   1.397       .  A
C1325      S1330   1.806       .  S
C1326      C1327   1.405       .  A
C1326      H1331   1.084       .  S
C1327      C1328   1.410       .  A
C1328      S1332   1.804       .  S
C1329      C1334   1.411       .  A
C1329      C1612   1.405   1_554  A
S1330      H1346   1.406       .  S
S1332      H1343   1.406       .  S
C1334      C1335   1.403   1_554  A
C1334      S1339   1.807       .  S
C1335      C1610   1.404       .  A
C1335      H1340   1.083       .  S
C1336      C1609   1.405       .  A
C1336      C1337   1.411       .  A
C1337      C1338   1.399       .  A
C1337      S1341   1.801       .  S
C1338      C1603   1.404       .  A
C1338      H1342   1.084       .  S
S1339      H1344   1.407       .  S
S1341      H1345   1.403       .  S
C1347      C1348   1.402       .  A
C1347      C1352   1.392       .  A
C1347      H1357   1.085       .  S
C1348      C1349   1.416       .  A
C1348      C1627   1.485       .  S
C1349      C1350   1.408       .  A
C1349      S1628   1.803       .  S
C1350      C1351   1.404       .  A
C1350      H1355   1.083       .  S
C1351      C1352   1.411       .  A
C1352      S1356   1.801       .  S
C1353      C1632   1.411   1_554  A
C1353      C1362   1.406       .  A
C1353      C1622   1.487   1_554  S
S1354      C1623   1.803       .  S
S1354      H1370   1.405       .  S
S1356      H1367   1.403       .  S
C1358      C1627   1.411       .  A
C1358      C1359   1.398       .  A
C1358      S1363   1.809       .  S
C1359      C1634   1.399       .  A
C1359      H1364   1.083       .  S
C1360      C1633   1.400   1_554  A
C1360      C1361   1.415       .  A
C1361      C1362   1.406       .  A
C1361      S1365   1.807       .  S
C1362      H1366   1.084       .  S
S1363      H1368   1.407       .  S
S1365      H1369   1.402       .  S
N1371      C1375   1.357       .  A
N1371      C1372   1.355       .  A
N1371      C1625   1.439       .  S
C1372      C1373   1.381       .  A
C1372      C1610   1.477       .  S
C1373      C1374   1.376       .  A
C1373      H1376   1.082       .  S
C1374      C1375   1.385       .  A
C1374      H1377   1.083       .  S
C1375      C1433   1.477       .  S
N1378      C1382   1.364       .  A
N1378      C1379   1.364       .  A
N1378      C1601   1.440       .  S
C1379      C1380   1.380       .  A
C1379      C1586   1.497       .  S
C1380      C1381   1.372       .  A
C1380      H1383   1.082       .  S
C1381      C1382   1.385       .  A
C1381      H1384   1.081       .  S
C1382      C1444   1.486       .  S
N1385      C1663   1.358       .  A
N1385      C1386   1.362       .  A
N1385      C1553   1.442       .  S
C1386      C1387   1.384       .  A
C1386      C1577   1.489       .  S
C1387      C1662   1.374       .  A
C1387      H1390   1.082       .  S
C1388      C1661   1.372       .  A
C1388      C1389   1.380   1_554  A
C1388      H1391   1.083       .  S
C1389      N1659   1.359   1_546  A
C1389      C1428   1.475       .  S
N1392      C1396   1.357       .  A
N1392      C1393   1.359       .  A
N1392      C1634   1.438       .  S
C1393      C1394   1.383       .  A
C1393      C1562   1.490       .  S
C1394      C1395   1.375       .  A
C1394      H1397   1.082       .  S
C1395      C1396   1.383       .  A
C1395      H1398   1.083   1_655  S
C1396      C1450   1.475       .  S
N1399      C1403   1.357       .  A
N1399      C1948   1.362   1_545  A
N1399      C1505   1.447       .  S
C1400      N1947   1.363       .  A
C1400      C1401   1.386       .  A
C1400      C1529   1.487       .  S
C1401      C1402   1.372       .  A
C1401      H1404   1.083       .  S
C1402      C1951   1.379       .  A
C1402      H1405   1.083       .  S
C1403      C1950   1.378   1_545  A
C1403      C1431   1.470       .  S
N1406      C1410   1.362       .  A
N1406      C1514   1.442       .  S
C1407      C1408   1.383       .  A
C1407      C1490   1.493       .  S
C1408      C1409   1.374       .  A
C1408      H1411   1.082       .  S
C1409      H1412   1.083       .  S
C1410      C1446   1.483       .  S
N1413      C1417   1.359       .  A
N1413      C1962   1.354       .  A
N1413      C1481   1.442       .  S
C1414      N1961   1.355       .  A
C1414      C1415   1.378       .  A
C1414      C1457   1.476       .  S
C1415      C1416   1.376       .  A
C1415      H1418   1.082       .  S
C1416      C1965   1.387       .  A
C1416      H1419   1.082       .  S
C1417      C1964   1.386       .  A
C1417      C1437   1.478       .  S
N1420      C1424   1.361       .  A
N1420      C1538   1.444       .  S
C1421      C1422   1.380       .  A
C1421      C1466   1.479       .  S
C1422      C1423   1.372       .  A
C1422      H1425   1.082       .  S
C1423      H1426   1.082       .  S
C1424      C1441   1.475       .  S
In1427     O1429   2.292       .  S
In1427     O1430   2.223       .  S
In1427     O1438   2.239       .  S
In1427     O1432   2.256       .  S
In1427     O1434   2.271       .  S
In1427     O1435   2.277       .  S
In1427     O1436   2.234       .  S
In1427     O1439   2.233       .  S
C1428      O1434   1.262       .  A
C1428      O1436   1.259       .  A
O1429      C1437   1.262       .  A
O1430      C1437   1.258       .  A
C1431      O1438   1.260       .  A
C1431      O1432   1.260       .  A
C1433      O1435   1.260       .  A
C1433      O1439   1.257       .  A
In1440     O1442   2.234       .  S
In1440     O1451   2.278       .  S
In1440     O1445   2.222       .  S
In1440     O1447   2.285       .  S
In1440     O1448   2.256       .  S
In1440     O1452   2.275       .  S
C1441      O1447   1.257       .  A
O1443      C1450   1.258       .  A
C1444      O1451   1.264       .  A
C1444      O1445   1.263       .  A
C1446      O1448   1.263       .  A
C1446      O1452   1.261       .  A
C1453      C1454   1.404       .  A
C1453      C1458   1.404       .  A
C1453      H1463   1.084       .  S
C1454      C1455   1.411       .  A
C1454      C1459   1.477       .  S
C1455      C1456   1.394       .  A
C1455      S1460   1.805       .  S
C1456      C1457   1.401       .  A
C1456      H1461   1.084       .  S
C1457      C1458   1.411       .  A
C1458      S1462   1.803       .  S
C1459      C1464   1.410       .  A
C1459      C1468   1.399       .  A
S1460      H1476   1.404       .  S
S1462      H1473   1.404       .  S
C1464      C1465   1.407       .  A
C1464      S1469   1.805       .  S
C1465      C1466   1.404       .  A
C1465      H1470   1.082       .  S
C1466      C1467   1.412       .  A
C1467      C1468   1.394       .  A
C1467      S1471   1.804       .  S
C1468      H1472   1.084       .  S
S1469      H1474   1.407       .  S
S1471      H1475   1.406       .  S
C1477      C1478   1.404       .  A
C1477      C1482   1.400       .  A
C1477      H1487   1.084       .  S
C1478      C1479   1.416       .  A
C1478      C1483   1.494       .  S
C1479      C1480   1.405       .  A
C1479      S1484   1.802       .  S
C1480      C1481   1.405       .  A
C1480      H1485   1.083       .  S
C1481      C1482   1.411       .  A
C1482      S1486   1.798       .  S
C1483      C1488   1.410       .  A
C1483      C1492   1.408       .  A
S1484      H1500   1.406       .  S
S1486      H1497   1.405       .  S
C1488      C1489   1.404       .  A
C1488      S1493   1.808       .  S
C1489      C1490   1.407       .  A
C1489      H1494   1.083       .  S
C1490      C1491   1.415       .  A
C1491      C1492   1.407       .  A
C1491      S1495   1.800       .  S
C1492      H1496   1.084       .  S
S1493      H1498   1.406       .  S
S1495      H1499   1.405       .  S
C1501      C1502   1.400       .  A
C1501      C1506   1.402       .  A
C1501      H1511   1.083       .  S
C1502      C1503   1.415       .  A
C1502      C1507   1.486       .  S
C1503      C1504   1.406       .  A
C1503      S1508   1.804       .  S
C1504      C1505   1.405       .  A
C1504      H1509   1.083   1_545  S
C1505      C1506   1.416       .  A
C1506      S1510   1.807       .  S
C1507      C1512   1.411       .  A
C1507      C1516   1.400       .  A
S1508      H1524   1.403       .  S
S1510      H1521   1.406       .  S
C1512      C1513   1.411       .  A
C1512      S1517   1.804       .  S
C1513      C1514   1.404       .  A
C1513      H1518   1.082       .  S
C1514      C1515   1.414       .  A
C1515      C1516   1.400       .  A
C1515      S1519   1.808       .  S
C1516      H1520   1.082       .  S
S1517      H1522   1.407       .  S
C1525      C1526   1.408       .  A
C1525      C1530   1.406       .  A
C1525      H1535   1.083       .  S
C1526      C1527   1.413       .  A
C1526      C1531   1.490       .  S
C1527      C1528   1.394       .  A
C1527      S1532   1.806       .  S
C1528      C1529   1.405       .  A
C1528      H1533   1.084       .  S
C1529      C1530   1.414       .  A
C1530      S1534   1.804       .  S
C1531      C1536   1.414       .  A
C1531      C1540   1.405       .  A
S1532      H1548   1.403       .  S
S1534      H2093   1.406       .  S
C1536      C1537   1.400       .  A
C1536      S1541   1.809       .  S
C1537      C1538   1.402       .  A
C1537      H1542   1.081       .  S
C1538      C1539   1.412       .  A
C1539      C1540   1.407       .  A
C1539      S1543   1.805       .  S
C1540      H1544   1.083       .  S
S1541      H1546   1.407       .  S
S1543      H1547   1.407       .  S
H1545      S2082   1.405       .  S
C1549      C1554   1.404       .  A
C1549      H1559   1.084       .  S
C1550      C1551   1.413       .  A
C1550      C1555   1.483       .  S
C1551      C1552   1.395       .  A
C1551      S1556   1.805       .  S
C1552      C1553   1.402       .  A
C1552      H1557   1.084       .  S
C1554      S1558   1.801       .  S
C1555      C1560   1.409       .  A
C1555      C1564   1.404       .  A
S1556      H1572   1.406       .  S
S1558      H1569   1.406       .  S
C1560      C1561   1.401       .  A
C1560      S1565   1.807       .  S
C1561      C1562   1.403       .  A
C1561      H1566   1.070       .  S
C1562      C1563   1.416       .  A
C1563      C1564   1.402       .  A
C1564      H1568   1.082       .  S
S1565      H1570   1.407       .  S
C1573      C1574   1.407       .  A
C1573      C1578   1.406       .  A
C1573      H1583   1.084       .  S
C1574      C1575   1.415       .  A
C1574      C1579   1.492       .  S
C1575      C1576   1.396       .  A
C1575      S1580   1.806       .  S
C1576      C1577   1.404       .  A
C1576      H1581   1.084       .  S
C1577      C1578   1.416       .  A
C1578      S1582   1.801       .  S
C1579      C1584   1.411       .  A
C1579      C1588   1.404       .  A
S1580      H1596   1.407       .  S
S1582      H1593   1.405       .  S
C1584      C1585   1.402       .  A
C1585      C1586   1.405       .  A
C1585      H1590   1.077       .  S
C1586      C1587   1.417       .  A
C1587      C1588   1.403       .  A
C1587      S1591   1.802       .  S
C1588      H1592   1.084       .  S
S1589      H1594   1.408       .  S
S1591      H1595   1.407       .  S
C1597      C1598   1.406       .  A
C1597      C1602   1.405       .  A
C1597      H1607   1.083       .  S
C1598      C1599   1.412       .  A
C1598      C1603   1.483       .  S
C1599      C1600   1.397       .  A
C1599      S1604   1.806       .  S
C1600      C1601   1.405       .  A
C1600      H1605   1.084       .  S
C1601      C1602   1.410       .  A
C1602      S1606   1.805       .  S
C1603      C1608   1.410       .  A
S1604      H1620   1.405       .  S
S1606      H1617   1.406       .  S
C1608      C1609   1.403       .  A
C1608      S1613   1.807       .  S
C1609      H1614   1.083       .  S
C1610      C1611   1.412       .  A
C1611      C1612   1.401       .  A
C1611      S1615   1.803       .  S
C1612      H1616   1.084       .  S
S1613      H1618   1.407       .  S
S1615      H1619   1.402       .  S
C1621      C1622   1.402       .  A
C1621      C1626   1.393       .  A
C1621      H1631   1.085       .  S
C1622      C1623   1.416   1_556  A
C1623      C1624   1.408   1_554  A
C1624      C1625   1.404       .  A
C1624      H1629   1.083       .  S
C1625      C1626   1.411       .  A
C1626      S1630   1.802       .  S
C1627      C1636   1.405       .  A
S1628      H1644   1.406       .  S
S1630      H1641   1.402       .  S
C1632      C1633   1.398       .  A
C1632      S1637   1.808       .  S
C1633      H1638   1.083       .  S
C1634      C1635   1.415       .  A
C1635      C1636   1.405       .  A
C1635      S1639   1.807       .  S
C1636      H1640   1.084       .  S
S1637      H1642   1.407       .  S
S1639      H1643   1.402       .  S
N1645      C1649   1.357       .  A
N1645      C1646   1.355       .  A
N1645      C1899   1.439       .  S
C1646      C1647   1.381       .  A
C1646      C1884   1.477       .  S
C1647      C1648   1.376       .  A
C1647      H1650   1.082       .  S
C1648      C1649   1.385       .  A
C1648      H1651   1.083       .  S
C1649      C1707   1.477       .  S
N1652      C1656   1.366       .  A
N1652      C1653   1.365       .  A
N1652      C1875   1.442       .  S
C1653      C1654   1.379       .  A
C1653      C1860   1.497       .  S
C1654      C1655   1.369       .  A
C1654      H1657   1.082       .  S
C1655      C1656   1.385       .  A
C1655      H1658   1.082       .  S
C1656      C1718   1.487       .  S
N1659      C1660   1.363       .  A
N1659      C1827   1.442   1_554  S
C1660      C1661   1.384   1_565  A
C1660      C1851   1.489       .  S
C1661      H1664   1.082       .  S
C1662      C1663   1.380       .  A
C1662      H1665   1.083       .  S
C1663      C1702   1.474       .  S
N1666      C1670   1.357       .  A
N1666      C1667   1.359       .  A
N1666      C1908   1.440       .  S
C1667      C1668   1.382       .  A
C1667      C1836   1.486       .  S
C1668      C1669   1.374       .  A
C1668      H1671   1.083       .  S
C1669      C1670   1.383       .  A
C1669      H1672   1.082   1_655  S
C1670      C1724   1.473       .  S
N1673      C1677   1.358       .  A
N1673      C1779   1.448       .  S
C1674      C1675   1.387       .  A
C1674      C1803   1.490       .  S
C1675      C1676   1.373       .  A
C1675      H1678   1.082       .  S
C1676      H1679   1.083       .  S
C1677      C1705   1.469       .  S
N1680      C1684   1.362       .  A
N1680      C1788   1.441       .  S
C1681      C1682   1.381       .  A
C1681      C1764   1.489       .  S
C1682      C1683   1.374       .  A
C1682      H1685   1.082       .  S
C1683      H1686   1.083       .  S
C1684      C1720   1.483       .  S
N1687      C1691   1.358       .  A
N1687      C1755   1.440       .  S
C1688      C1689   1.378       .  A
C1688      C1731   1.475   1_545  S
C1689      C1690   1.376       .  A
C1689      H1692   1.082   1_545  S
C1690      H1693   1.081       .  S
C1691      C1711   1.480       .  S
N1694      C1698   1.361       .  A
N1694      C1812   1.444       .  S
C1695      C1696   1.380       .  A
C1695      C1740   1.478       .  S
C1696      C1697   1.372       .  A
C1696      H1699   1.082       .  S
C1697      H1700   1.082       .  S
C1698      C1715   1.476       .  S
In1701     O1703   2.293       .  S
In1701     O1704   2.224       .  S
In1701     O1712   2.237       .  S
In1701     O1706   2.256       .  S
In1701     O1708   2.264       .  S
In1701     O1709   2.278       .  S
In1701     O1710   2.240       .  S
In1701     O1713   2.233       .  S
C1702      O1708   1.260       .  A
C1702      O1710   1.259       .  A
O1703      C1711   1.262       .  A
O1704      C1711   1.258       .  A
C1705      O1712   1.261       .  A
C1705      O1706   1.260       .  A
C1707      O1709   1.260       .  A
C1707      O1713   1.257       .  A
In1714     O1716   2.229       .  S
In1714     O1725   2.283       .  S
In1714     O1719   2.221       .  S
In1714     O1721   2.291       .  S
In1714     O1722   2.250       .  S
In1714     O1726   2.276       .  S
C1715      O1721   1.257       .  A
O1717      C1724   1.258       .  A
C1718      O1725   1.263       .  A
C1718      O1719   1.263       .  A
C1720      O1722   1.263       .  A
C1720      O1726   1.261       .  A
C1727      C1728   1.405       .  A
C1727      C1732   1.404       .  A
C1727      H1737   1.083       .  S
C1728      C1729   1.411       .  A
C1728      C1733   1.480       .  S
C1729      C1730   1.394       .  A
C1729      S1734   1.805       .  S
C1730      C1731   1.401       .  A
C1730      H1735   1.083       .  S
C1731      C1732   1.411       .  A
C1732      S1736   1.803   1_565  S
C1733      C1738   1.410       .  A
C1733      C1742   1.401       .  A
S1734      H1750   1.406       .  S
S1736      H1747   1.404       .  S
C1738      C1739   1.407       .  A
C1738      S1743   1.806       .  S
C1739      C1740   1.404       .  A
C1739      H1744   1.083       .  S
C1740      C1741   1.412       .  A
C1741      C1742   1.395       .  A
C1741      S1745   1.805       .  S
C1742      H1746   1.084       .  S
S1743      H1748   1.407       .  S
S1745      H1749   1.405       .  S
C1751      C1752   1.403       .  A
C1751      C1756   1.399       .  A
C1751      H1761   1.083       .  S
C1752      C1753   1.416       .  A
C1752      C1757   1.492       .  S
C1753      C1754   1.405       .  A
C1753      S1758   1.802       .  S
C1754      C1755   1.403       .  A
C1754      H1759   1.083       .  S
C1755      C1756   1.411       .  A
C1756      S1760   1.799       .  S
C1757      C1762   1.410       .  A
C1757      C1766   1.407       .  A
S1758      H1774   1.406       .  S
S1760      H1771   1.405       .  S
C1762      C1763   1.403       .  A
C1762      S1767   1.807       .  S
C1763      C1764   1.405       .  A
C1763      H1768   1.083       .  S
C1764      C1765   1.414       .  A
C1765      C1766   1.406       .  A
C1765      S1769   1.800       .  S
C1766      H1770   1.084       .  S
S1767      H1772   1.406       .  S
S1769      H1773   1.405       .  S
C1775      C1776   1.400       .  A
C1775      C1780   1.402       .  A
C1775      H1785   1.083       .  S
C1776      C1777   1.415       .  A
C1776      C1781   1.486       .  S
C1777      C1778   1.407       .  A
C1777      S1782   1.804       .  S
C1778      C1779   1.406       .  A
C1778      H1783   1.083       .  S
C1779      C1780   1.416       .  A
C1780      S1784   1.807       .  S
C1781      C1786   1.411       .  A
C1781      C1790   1.400       .  A
S1782      H1798   1.403       .  S
S1784      H1795   1.406       .  S
C1786      C1787   1.411       .  A
C1786      S1791   1.804       .  S
C1787      C1788   1.404       .  A
C1787      H1792   1.082       .  S
C1788      C1789   1.413       .  A
C1789      C1790   1.399       .  A
C1789      S1793   1.807       .  S
C1790      H1794   1.083       .  S
S1791      H1796   1.407       .  S
C1799      C1800   1.407       .  A
C1799      C1804   1.406       .  A
C1799      H1809   1.084       .  S
C1800      C1801   1.412       .  A
C1800      C1805   1.489       .  S
C1801      C1802   1.394       .  A
C1801      S1806   1.806       .  S
C1802      C1803   1.405       .  A
C1802      H1807   1.084       .  S
C1803      C1804   1.415       .  A
C1804      S1808   1.803   1_565  S
C1805      C1810   1.414       .  A
C1805      C1814   1.406       .  A
S1806      H1822   1.404       .  S
C1810      C1811   1.400       .  A
C1810      S1815   1.810       .  S
C1811      C1812   1.402       .  A
C1811      H1816   1.081       .  S
C1812      C1813   1.412       .  A
C1813      C1814   1.407       .  A
C1813      S1817   1.805       .  S
C1814      H1818   1.082       .  S
S1815      H1820   1.407       .  S
S1817      H1821   1.407       .  S
C1823      C2098   1.405       .  A
C1823      C1828   1.404       .  A
C1823      H1833   1.084       .  S
C1824      C2097   1.405       .  A
C1824      C1825   1.412       .  A
C1824      C1829   1.481       .  S
C1825      C1826   1.396   1_556  A
C1825      S1830   1.805   1_556  S
C1826      C1827   1.403   1_554  A
C1826      H1831   1.084       .  S
C1827      C2102   1.413       .  A
C1828      C2101   1.412       .  A
C1828      S1832   1.801       .  S
C1829      C1834   1.408   1_556  A
C1829      C1838   1.404       .  A
S1830      H1846   1.406       .  S
S1832      H1843   1.406       .  S
C1834      C1835   1.398       .  A
C1834      S1839   1.806       .  S
C1835      C1836   1.401       .  A
C1835      H1840   1.079       .  S
C1836      C1837   1.415   1_554  A
C1837      C1838   1.403       .  A
C1837      S2115   1.803       .  S
C1838      H1842   1.086       .  S
S1839      H1844   1.407       .  S
S1841      C2111   1.803       .  S
S1841      H2119   1.407       .  S
H1845      S2115   1.407       .  S
C1847      C1848   1.407       .  A
C1847      C1852   1.406       .  A
C1847      H1857   1.084       .  S
C1848      C1849   1.414       .  A
C1848      C1853   1.490       .  S
C1849      C1850   1.395       .  A
C1849      S1854   1.806       .  S
C1850      C1851   1.404       .  A
C1850      H1855   1.084       .  S
C1851      C1852   1.416       .  A
C1852      S1856   1.801       .  S
C1853      C1858   1.411       .  A
C1853      C1862   1.403       .  A
S1854      H1870   1.407       .  S
S1856      H1867   1.405       .  S
C1858      C1859   1.402       .  A
C1858      S2137   1.808       .  S
C1859      C1860   1.405       .  A
C1859      H1864   1.078       .  S
C1860      C1861   1.418       .  A
C1861      C1862   1.402       .  A
C1861      S1865   1.803       .  S
C1862      H1866   1.084       .  S
S1863      C2132   1.808       .  S
S1863      H1868   1.408       .  S
S1865      H1869   1.407       .  S
C1871      C1872   1.406       .  A
C1871      C1876   1.406       .  A
C1871      H1881   1.083       .  S
C1872      C1873   1.412       .  A
C1872      C1877   1.485       .  S
C1873      C1874   1.397       .  A
C1873      S1878   1.806       .  S
C1874      C1875   1.405       .  A
C1874      H1879   1.084       .  S
C1875      C1876   1.411       .  A
C1876      S1880   1.805       .  S
C1877      C1882   1.411       .  A
C1877      C2160   1.404   1_554  A
S1878      H1894   1.406       .  S
S1880      H1891   1.407       .  S
C1882      C1883   1.402   1_554  A
C1882      S1887   1.807       .  S
C1883      C2158   1.404       .  A
C1883      H1888   1.083       .  S
C1884      C2157   1.404       .  A
C1884      C1885   1.412       .  A
C1885      C1886   1.400       .  A
C1885      S1889   1.803       .  S
C1886      C2151   1.404       .  A
C1886      H1890   1.084       .  S
S1887      H1892   1.407       .  S
S1889      H1893   1.402       .  S
C1895      C1896   1.402       .  A
C1895      C1900   1.394       .  A
C1895      H1905   1.084       .  S
C1896      C1897   1.416       .  A
C1896      C2175   1.488       .  S
C1897      C1898   1.408       .  A
C1897      S2176   1.803       .  S
C1898      C1899   1.404       .  A
C1898      H1903   1.083       .  S
C1899      C1900   1.411       .  A
C1900      S1904   1.802       .  S
C1901      C2180   1.412   1_554  A
C1901      C1910   1.406       .  A
C1901      C2170   1.489   1_554  S
S1902      C2171   1.803   1_554  S
S1902      H1918   1.406       .  S
S1904      H1915   1.403       .  S
C1906      C2175   1.411       .  A
C1906      C1907   1.400       .  A
C1906      S1911   1.808       .  S
C1907      C2182   1.401       .  A
C1907      H1912   1.083       .  S
C1908      C2181   1.400   1_554  A
C1908      C1909   1.416       .  A
C1909      C1910   1.406       .  A
C1909      S1913   1.807       .  S
C1910      H1914   1.084       .  S
S1911      H1916   1.407       .  S
S1913      H1917   1.402       .  S
N1919      C1923   1.357       .  A
N1919      C1920   1.355       .  A
N1919      C2173   1.440       .  S
C1920      C1921   1.381       .  A
C1920      C2158   1.476       .  S
C1921      C1922   1.375       .  A
C1921      H1924   1.082       .  S
C1922      C1923   1.385       .  A
C1922      H1925   1.083       .  S
C1923      C1981   1.475       .  S
N1926      C1930   1.365       .  A
N1926      C1927   1.364       .  A
N1926      C2149   1.442       .  S
C1927      C1928   1.379       .  A
C1927      C2134   1.497       .  S
C1928      C1929   1.371       .  A
C1928      H1931   1.082       .  S
C1929      C1930   1.385       .  A
C1929      H1932   1.082       .  S
C1930      C1992   1.488       .  S
N1933      C1934   1.363       .  A
N1933      C2101   1.441       .  S
C1934      C1935   1.385   1_565  A
C1934      C2125   1.490       .  S
C1935      H1938   1.082       .  S
C1936      C1937   1.381   1_554  A
C1936      H1939   1.083       .  S
C1937      C1976   1.476       .  S
N1940      C1944   1.358       .  A
N1940      C1941   1.360       .  A
N1940      C2182   1.440       .  S
C1941      C1942   1.382       .  A
C1941      C2110   1.489       .  S
C1942      C1943   1.374       .  A
C1942      H1945   1.082       .  S
C1943      C1944   1.383       .  A
C1943      H1946   1.082   1_655  S
C1944      C1998   1.475       .  S
N1947      C1951   1.359       .  A
N1947      C2053   1.449       .  S
C1948      C1949   1.386       .  A
C1948      C2077   1.488       .  S
C1949      C1950   1.373       .  A
C1949      H1952   1.082       .  S
C1950      H1953   1.082       .  S
C1951      C1979   1.471       .  S
N1954      C1958   1.362       .  A
N1954      C2062   1.443       .  S
C1955      C1956   1.382       .  A
C1955      C2038   1.490       .  S
C1956      C1957   1.374       .  A
C1956      H1959   1.082       .  S
C1957      H1960   1.083       .  S
C1958      C1994   1.483       .  S
N1961      C1965   1.358       .  A
N1961      C2029   1.443       .  S
C1962      C1963   1.379       .  A
C1962      C2005   1.475   1_545  S
C1963      C1964   1.375       .  A
C1963      H1966   1.082   1_545  S
C1964      H1967   1.082       .  S
C1965      C1985   1.478       .  S
N1968      C1972   1.362       .  A
N1968      C2086   1.445       .  S
C1969      C1970   1.380       .  A
C1969      C2014   1.476       .  S
C1970      C1971   1.371       .  A
C1970      H1973   1.082       .  S
C1971      H1974   1.082       .  S
C1972      C1989   1.475       .  S
In1975     O1977   2.288       .  S
In1975     O1978   2.225       .  S
In1975     O1986   2.236       .  S
In1975     O1980   2.264       .  S
In1975     O1982   2.270       .  S
In1975     O1983   2.272       .  S
In1975     O1984   2.242       .  S
In1975     O1987   2.231       .  S
C1976      O1982   1.261       .  A
C1976      O1984   1.258       .  A
O1977      C1985   1.262       .  A
O1978      C1985   1.259       .  A
C1979      O1986   1.259       .  A
C1979      O1980   1.261       .  A
C1981      O1983   1.260       .  A
C1981      O1987   1.257       .  A
In1988     O1990   2.239       .  S
In1988     O1999   2.281       .  S
In1988     O1993   2.227       .  S
In1988     O1995   2.287       .  S
In1988     O1996   2.252       .  S
In1988     O2000   2.277       .  S
C1989      O1995   1.256       .  A
O1991      C1998   1.257       .  A
C1992      O1999   1.263       .  A
C1992      O1993   1.263       .  A
C1994      O1996   1.263       .  A
C1994      O2000   1.261       .  A
C2001      C2002   1.405       .  A
C2001      C2006   1.403       .  A
C2001      H2011   1.083       .  S
C2002      C2003   1.413       .  A
C2002      C2007   1.482       .  S
C2003      C2004   1.393       .  A
C2003      S2008   1.806       .  S
C2004      C2005   1.401       .  A
C2004      H2009   1.084       .  S
C2005      C2006   1.412       .  A
C2006      S2010   1.803   1_565  S
C2007      C2012   1.412       .  A
C2007      C2016   1.401       .  A
S2008      H2024   1.406       .  S
S2010      H2021   1.404       .  S
C2012      C2013   1.407       .  A
C2012      S2017   1.805       .  S
C2013      C2014   1.403       .  A
C2013      H2018   1.083       .  S
C2014      C2015   1.411       .  A
C2015      C2016   1.393       .  A
C2015      S2019   1.805       .  S
C2016      H2020   1.084       .  S
S2017      H2022   1.407       .  S
S2019      H2023   1.405   1_655  S
C2025      C2026   1.404       .  A
C2025      C2030   1.401       .  A
C2025      H2035   1.085       .  S
C2026      C2027   1.416       .  A
C2026      C2031   1.494       .  S
C2027      C2028   1.405       .  A
C2027      S2032   1.803       .  S
C2028      C2029   1.404       .  A
C2028      H2033   1.083       .  S
C2029      C2030   1.412       .  A
C2030      S2034   1.798       .  S
C2031      C2036   1.410       .  A
C2031      C2040   1.408       .  A
S2032      H2048   1.406       .  S
S2034      H2045   1.406       .  S
C2036      C2037   1.405       .  A
C2036      S2041   1.807       .  S
C2037      C2038   1.406       .  A
C2037      H2042   1.084       .  S
C2038      C2039   1.414       .  A
C2039      C2040   1.407       .  A
C2039      S2043   1.801       .  S
C2040      H2044   1.084       .  S
S2041      H2046   1.407       .  S
S2043      H2047   1.405       .  S
C2049      C2050   1.400       .  A
C2049      C2054   1.402       .  A
C2049      H2059   1.083       .  S
C2050      C2051   1.416       .  A
C2050      C2055   1.487       .  S
C2051      C2052   1.407       .  A
C2051      S2056   1.805       .  S
C2052      C2053   1.406       .  A
C2052      H2057   1.083       .  S
C2053      C2054   1.417       .  A
C2054      S2058   1.807       .  S
C2055      C2060   1.411       .  A
C2055      C2064   1.400       .  A
S2056      H2072   1.403       .  S
S2058      H2069   1.406       .  S
C2060      C2061   1.411       .  A
C2060      S2065   1.804       .  S
C2061      C2062   1.403       .  A
C2061      H2066   1.082       .  S
C2062      C2063   1.415       .  A
C2063      C2064   1.401       .  A
C2063      S2067   1.807       .  S
C2064      H2068   1.083       .  S
S2065      H2070   1.407       .  S
C2073      C2074   1.407       .  A
C2073      C2078   1.406       .  A
C2073      H2083   1.083       .  S
C2074      C2075   1.413       .  A
C2074      C2079   1.488       .  S
C2075      C2076   1.393       .  A
C2075      S2080   1.806       .  S
C2076      C2077   1.405       .  A
C2076      H2081   1.084       .  S
C2077      C2078   1.415       .  A
C2078      S2082   1.804   1_565  S
C2079      C2084   1.412       .  A
C2079      C2088   1.405       .  A
S2080      H2096   1.404       .  S
C2084      C2085   1.399       .  A
C2084      S2089   1.810       .  S
C2085      C2086   1.403       .  A
C2085      H2090   1.080       .  S
C2086      C2087   1.413       .  A
C2087      C2088   1.408       .  A
C2087      S2091   1.805       .  S
C2088      H2092   1.082       .  S
S2089      H2094   1.407       .  S
S2091      H2095   1.407       .  S
C2097      C2102   1.404       .  A
C2097      H2107   1.084       .  S
C2098      C2099   1.413       .  A
C2098      C2103   1.482       .  S
C2099      C2100   1.396       .  A
C2099      S2104   1.805       .  S
C2100      C2101   1.402       .  A
C2100      H2105   1.084       .  S
C2102      S2106   1.801       .  S
C2103      C2108   1.409       .  A
C2103      C2112   1.404       .  A
S2104      H2120   1.406       .  S
S2106      H2117   1.406       .  S
C2108      C2109   1.399       .  A
C2108      S2113   1.806       .  S
C2109      C2110   1.402       .  A
C2109      H2114   1.070       .  S
C2110      C2111   1.415       .  A
C2111      C2112   1.403       .  A
C2112      H2116   1.082       .  S
S2113      H2118   1.407       .  S
C2121      C2122   1.407       .  A
C2121      C2126   1.406       .  A
C2121      H2131   1.084       .  S
C2122      C2123   1.414       .  A
C2122      C2127   1.491       .  S
C2123      C2124   1.395       .  A
C2123      S2128   1.806       .  S
C2124      C2125   1.404       .  A
C2124      H2129   1.084       .  S
C2125      C2126   1.416       .  A
C2126      S2130   1.801       .  S
C2127      C2132   1.411       .  A
C2127      C2136   1.403       .  A
S2128      H2144   1.407       .  S
S2130      H2141   1.405       .  S
C2132      C2133   1.401       .  A
C2133      C2134   1.405       .  A
C2133      H2138   1.076       .  S
C2134      C2135   1.418       .  A
C2135      C2136   1.403       .  A
C2135      S2139   1.802       .  S
C2136      H2140   1.084       .  S
S2137      H2142   1.407       .  S
S2139      H2143   1.407       .  S
C2145      C2146   1.406       .  A
C2145      C2150   1.406       .  A
C2145      H2155   1.083       .  S
C2146      C2147   1.412       .  A
C2146      C2151   1.485       .  S
C2147      C2148   1.397       .  A
C2147      S2152   1.806       .  S
C2148      C2149   1.405       .  A
C2148      H2153   1.084       .  S
C2149      C2150   1.411       .  A
C2150      S2154   1.805       .  S
C2151      C2156   1.411       .  A
S2152      H2168   1.406       .  S
S2154      H2165   1.406       .  S
C2156      C2157   1.402       .  A
C2156      S2161   1.807       .  S
C2157      H2162   1.083       .  S
C2158      C2159   1.412       .  A
C2159      C2160   1.400       .  A
C2159      S2163   1.803       .  S
C2160      H2164   1.084       .  S
S2161      H2166   1.407       .  S
S2163      H2167   1.402       .  S
C2169      C2170   1.402       .  A
C2169      C2174   1.393       .  A
C2169      H2179   1.084       .  S
C2170      C2171   1.416       .  A
C2171      C2172   1.408       .  A
C2172      C2173   1.404       .  A
C2172      H2177   1.083       .  S
C2173      C2174   1.411       .  A
C2174      S2178   1.802       .  S
C2175      C2184   1.406       .  A
S2176      H2192   1.406       .  S
S2178      H2189   1.402       .  S
C2180      C2181   1.399       .  A
C2180      S2185   1.808       .  S
C2181      H2186   1.083       .  S
C2182      C2183   1.415       .  A
C2183      C2184   1.406       .  A
C2183      S2187   1.807       .  S
C2184      H2188   1.084       .  S
S2185      H2190   1.407       .  S
S2187      H2191   1.402       .  S
