geometry optimzed in LAMMPS
_audit_creation_date              2020-11-30 
_audit_creation_method            'lammps2cif' 
_symmetry_space_group_name_H-M    'P1' 
_symmetry_Int_Tables_number       1 
_symmetry_cell_setting            triclinic 
loop_ 
_symmetry_equiv_pos_as_xyz 
  x,y,z 
_cell_length_a                    33.36855442512585 
_cell_length_b                    33.463641837081674 
_cell_length_c                    32.99785174358018 
_cell_angle_alpha                 90.5014660244714 
_cell_angle_beta                  91.66872329517233 
_cell_angle_gamma                 89.6179955151073 
loop_ 
_atom_site_label 
_atom_site_type_symbol 
_atom_site_fract_x 
_atom_site_fract_y 
_atom_site_fract_z 
_atom_site_charge 
C1          C  0.87003906  0.26766015  0.49210589    -0.03090
C2          C  0.86497592  0.50766551  0.25845848    -0.03090
C3          C  0.86914126  0.51658154  0.74836057    -0.03090
C4          C  0.86988401  0.74053545  0.50167449    -0.03090
O5          O  0.77559455  0.56377374  0.49896027    -0.72380
O6          O  0.78393180  0.45028155  0.50541437    -0.72590
O7          O  0.78062004  0.51080529  0.56046468    -0.72450
O8          O  0.77955317  0.50432150  0.44430227    -0.72460
O9          O  0.84471908  0.50406814  0.44672864    -0.72420
O10         O  0.84515629  0.51938839  0.56045170    -0.72440
O11         O  0.84868274  0.45607814  0.51113240    -0.72380
O12         O  0.84053809  0.56690658  0.49624204    -0.72570
V13         V  0.78098780  0.50730459  0.50247134     1.35240
V14         V  0.84339291  0.51147533  0.50367607     1.35170
C15         C  0.80692048  0.58429478  0.49557673     0.76860
C16         C  0.81815887  0.43397485  0.50884674     0.76920
C17         C  0.81333107  0.51711079  0.57993322     0.76790
C18         C  0.81238507  0.50318400  0.42590537     0.76750
C19         C  0.25950361  0.87675200  0.49023173    -0.03090
C20         C  0.51137444  0.88949507  0.26067867    -0.03090
C21         C  0.50532136  0.88314523  0.75017830    -0.03090
C22         C  0.74612947  0.87419406  0.49171268    -0.03090
O23         O  0.44823845  0.80566061  0.50100966    -0.72380
O24         O  0.56253090  0.79532593  0.51136691    -0.72590
O25         O  0.50150728  0.79265849  0.56413936    -0.72450
O26         O  0.50856344  0.80740859  0.44937359    -0.72460
O27         O  0.51668141  0.87076335  0.46020876    -0.72420
O28         O  0.50418568  0.85709782  0.57222464    -0.72440
O29         O  0.56622910  0.85905734  0.52406628    -0.72380
O30         O  0.45476626  0.86963407  0.50855510    -0.72570
V31         V  0.50544402  0.80122787  0.50686259     1.35240
V32         V  0.51038565  0.86270123  0.51612021     1.35170
C33         C  0.43239127  0.84024338  0.50076145     0.76860
C34         C  0.58361309  0.82591366  0.51958967     0.76920
C35         C  0.50102947  0.82286851  0.58753662     0.76790
C36         C  0.51301861  0.84206935  0.43518455     0.76750
C37         C  0.49650751  0.26369200  0.86443618    -0.03090
C38         C  0.25767867  0.51091890  0.87088225    -0.03090
C39         C  0.73692291  0.50111927  0.87036864    -0.03090
C40         C  0.49941453  0.75827452  0.88528469    -0.03090
O41         O  0.43927091  0.51722838  0.79583333    -0.72380
O42         O  0.55157908  0.50891755  0.78938465    -0.72590
O43         O  0.49071257  0.45502751  0.79177204    -0.72450
O44         O  0.50002103  0.57126726  0.79732121    -0.72460
O45         O  0.50864851  0.56474602  0.86207088    -0.72420
O46         O  0.49390414  0.45584073  0.85729285    -0.72440
O47         O  0.55673513  0.50242973  0.85488788    -0.72380
O48         O  0.44452986  0.51810125  0.86165091    -0.72570
V49         V  0.49555469  0.51308602  0.79451350     1.35240
V50         V  0.50076895  0.51038818  0.85747615     1.35170
C51         C  0.42280220  0.51958079  0.82956288     0.76860
C52         C  0.57301810  0.50345643  0.82082009     0.76920
C53         C  0.48959147  0.43609638  0.82518404     0.76790
C54         C  0.50652669  0.58746689  0.83210050     0.76750
C55         C  0.37351457  0.00698309  0.75599798    -0.03090
C56         C  0.37363427  0.76547847  0.01177918    -0.03090
C57         C  0.37568402  0.25020276  0.99540639    -0.03090
C58         C  0.37243309  0.01058776  0.24786500    -0.03090
O59         O  0.28852974  0.00918277  0.05869002    -0.72380
O60         O  0.30246112  0.00598548  0.94436793    -0.72590
O61         O  0.29626775  0.95084228  0.00185154    -0.72450
O62         O  0.29506955  0.06504149  0.00049121    -0.72460
O63         O  0.35860625  0.06429887  0.01710574    -0.72420
O64         O  0.36141573  0.95288527  0.00521637    -0.72440
O65         O  0.36641637  0.01348975  0.95499455    -0.72380
O66         O  0.35312850  0.00288593  0.06735311    -0.72570
V67         V  0.29653405  0.00794216  0.00151673     1.35240
V68         V  0.35856480  0.00850891  0.01095928     1.35170
C69         C  0.31879853  0.00491322  0.08230662     0.76860
C70         C  0.33727801  0.00819314  0.93038004     0.76920
C71         C  0.32969617  0.93270845  0.00291051     0.76790
C72         C  0.32686462  0.08385527  0.00991402     0.76750
C73         C  0.00230042  0.63697674  0.75092415    -0.03090
C74         C  0.76150142  0.63187303  0.99711393    -0.03090
C75         C  0.24498997  0.63709014  0.00165912    -0.03090
C76         C  0.99422122  0.63259950  0.25309394    -0.03090
O77         O  0.00434460  0.71480659  0.06169851    -0.72380
O78         O  0.00195555  0.71133624  0.94392196    -0.72590
O79         O  0.94568161  0.71280488  0.00255634    -0.72450
O80         O  0.05953518  0.71593574  0.00291185    -0.72460
O81         O  0.06131026  0.65152064  0.01082308    -0.72420
O82         O  0.94829425  0.64806918  0.99686602    -0.72440
O83         O  0.00984717  0.64715761  0.94758951    -0.72380
O84         O  0.99944248  0.65039714  0.05955422    -0.72570
V85         V  0.00270896  0.71281280  0.00271832     1.35240
V86         V  0.00465255  0.65067642  0.00369404     1.35170
C87         C  0.00282175  0.68180832  0.08055253     0.76860
C88         C  0.00768898  0.67786545  0.92608345     0.76920
C89         C  0.92772839  0.67985451  0.99865682     0.76790
C90         C  0.07969656  0.68435882  0.00845663     0.76750
C91         C  0.63553792  0.76496640  0.01244987    -0.03090
C92         C  0.63936433  0.00427387  0.74613366    -0.03090
C93         C  0.62592802  0.25233625  0.99974557    -0.03090
C94         C  0.63306311  0.01694896  0.23551774    -0.03090
O95         O  0.69795628  0.00768307  0.04767749    -0.72380
O96         O  0.71512854  0.00477733  0.93458796    -0.72590
O97         O  0.70183440  0.06345449  0.99038228    -0.72450
O98         O  0.71073666  0.94927604  0.99258263    -0.72460
O99         O  0.64700929  0.94546822  0.97753929    -0.72420
O100        O  0.63758420  0.05728906  0.98208504    -0.72440
O101        O  0.65054486  0.00325419  0.92374002    -0.72380
O102        O  0.63446025  0.99906986  0.03574099    -0.72570
V103        V  0.70538467  0.00615791  0.99101820     1.35240
V104        V  0.64376040  0.00139621  0.97994391     1.35170
C105        C  0.66299402  0.00429998  0.06096823     0.76860
C106        C  0.68541289  0.00349405  0.91007476     0.76920
C107        C  0.66748463  0.07981901  0.98780532     0.76790
C108        C  0.68010365  0.92819464  0.98445001     0.76750
C109        C  0.24971356  0.50569300  0.12741164    -0.03090
C110        C  0.50440702  0.26836398  0.12635994    -0.03090
C111        C  0.51009915  0.75442578  0.13840775    -0.03090
C112        C  0.73394937  0.51019437  0.12666014    -0.03090
O113        O  0.43616802  0.51298865  0.21532516    -0.72380
O114        O  0.55069386  0.50773826  0.21039430    -0.72590
O115        O  0.49630509  0.56718851  0.20776500    -0.72450
O116        O  0.49109646  0.45314395  0.21750414    -0.72460
O117        O  0.49581953  0.44993754  0.15201301    -0.72420
O118        O  0.48154619  0.56006788  0.14383522    -0.72440
O119        O  0.54450044  0.51097372  0.14472076    -0.72380
O120        O  0.43256278  0.49809763  0.15108252    -0.72570
V121        V  0.49342741  0.51025741  0.21197450     1.35240
V122        V  0.48866011  0.50496715  0.14922902     1.35170
C123        C  0.41505734  0.50426185  0.18394793     0.76860
C124        C  0.56685963  0.50952957  0.17618791     0.76920
C125        C  0.49034142  0.58281644  0.17319132     0.76790
C126        C  0.49296543  0.43228389  0.18534575     0.76750
C127        C  0.75646803  0.37895682  0.99920031    -0.03090
C128        C  0.99705084  0.38428777  0.74495146    -0.03090
C129        C  0.24707085  0.37952545  0.99483505    -0.03090
C130        C  0.00107730  0.38340016  0.24791413    -0.03090
O131        O  0.00087202  0.31508320  0.05423688    -0.72380
O132        O  0.00376765  0.31534376  0.93729160    -0.72590
O133        O  0.05959110  0.30776998  0.99790166    -0.72450
O134        O  0.94629480  0.32052465  0.99358245    -0.72460
O135        O  0.95466986  0.38334607  0.00732723    -0.72420
O136        O  0.06455466  0.37137783  0.98626522    -0.72440
O137        O  0.99763902  0.37961073  0.94196121    -0.72380
O138        O  0.02116230  0.37628836  0.05261750    -0.72570
V139        V  0.00290898  0.31516779  0.99584441     1.35240
V140        V  0.00952698  0.37654065  0.99707852     1.35170
C141        C  0.00924178  0.34747699  0.07304177     0.76860
C142        C  0.00029994  0.34907500  0.91992867     0.76920
C143        C  0.08105458  0.33745388  0.98963586     0.76790
C144        C  0.93117592  0.35432125  0.00161844     0.76750
C145        C  0.75959859  0.01393742  0.61259727    -0.03090
C146        C  0.00401205  0.76540695  0.62449409    -0.03090
C147        C  0.00014875  0.25108560  0.62250766    -0.03090
C148        C  0.23984001  0.99789076  0.62724841    -0.03090
O149        O  0.01592983  0.95407050  0.64067905    -0.72380
O150        O  0.00206571  0.06331198  0.63678446    -0.72590
O151        O  0.06477759  0.01460197  0.64724473    -0.72450
O152        O  0.95250885  0.00168386  0.63199508    -0.72460
O153        O  0.94522974  0.01000978  0.69680140    -0.72420
O154        O  0.05879530  0.00808756  0.71223541    -0.72440
O155        O  0.00357921  0.06674985  0.70261366    -0.72380
O156        O  0.00022208  0.95180975  0.70380666    -0.72570
V157        V  0.00862294  0.00839156  0.64054840     1.35240
V158        V  0.00207500  0.00926004  0.70306695     1.35170
C159        C  0.00737583  0.93366459  0.67084526     0.76860
C160        C  0.00395383  0.08411224  0.66845927     0.76920
C161        C  0.08096954  0.01272088  0.68227094     0.76790
C162        C  0.92967295  0.00457776  0.66185095     0.76750
C163        C  0.12827837  0.26798988  0.49823558    -0.03090
C164        C  0.12740701  0.50954602  0.26029289    -0.03090
C165        C  0.12706748  0.50208909  0.74036478    -0.03090
C166        C  0.13331554  0.74510988  0.50085393    -0.03090
O167        O  0.16322567  0.57208439  0.52371816    -0.72380
O168        O  0.14828104  0.46275998  0.50430654    -0.72590
O169        O  0.16258831  0.50764625  0.56983966    -0.72450
O170        O  0.14814813  0.52729600  0.45909046    -0.72460
O171        O  0.20956629  0.51047304  0.44820114    -0.72420
O172        O  0.22730922  0.50886454  0.56401054    -0.72440
O173        O  0.21240804  0.45262578  0.50624613    -0.72380
O174        O  0.22524523  0.56631553  0.50584522    -0.72570
V175        V  0.15685715  0.51726740  0.51408742     1.35240
V176        V  0.21793496  0.50971235  0.50614578     1.35170
C177        C  0.19606199  0.58824564  0.51587654     0.76860
C178        C  0.17726922  0.43845548  0.50549105     0.76920
C179        C  0.19704185  0.50627915  0.58629538     0.76790
C180        C  0.17507373  0.52043921  0.43417491     0.76750
C181        C  0.25774467  0.13605290  0.50926749    -0.03090
C182        C  0.50043937  0.13793893  0.25263368    -0.03090
C183        C  0.50358641  0.12888182  0.73883829    -0.03090
C184        C  0.73980660  0.14227565  0.48716351    -0.03090
O185        O  0.43775716  0.15871569  0.49953028    -0.72380
O186        O  0.55133945  0.15524561  0.50186731    -0.72590
O187        O  0.49498031  0.15883345  0.55720713    -0.72450
O188        O  0.49449256  0.15389201  0.44495881    -0.72460
O189        O  0.48693907  0.21786713  0.43998599    -0.72420
O190        O  0.50371347  0.22321049  0.55597743    -0.72440
O191        O  0.55235791  0.21934247  0.49174641    -0.72380
O192        O  0.43923970  0.22353799  0.50449967    -0.72570
V193        V  0.49460135  0.15802723  0.50090428     1.35240
V194        V  0.49569383  0.22013188  0.49815218     1.35170
C195        C  0.41922497  0.19168327  0.50228964     0.76860
C196        C  0.57112738  0.18656095  0.49569927     0.76920
C197        C  0.50137862  0.19105230  0.57589145     0.76790
C198        C  0.48738484  0.18360966  0.42301761     0.76750
C199        C  0.99667042  0.76698467  0.37791276    -0.03090
C200        C  0.75611820  0.00365276  0.36914834    -0.03090
C201        C  0.24320734  0.01532453  0.37393286    -0.03090
C202        C  0.00076886  0.24640089  0.36671195    -0.03090
O203        O  0.98186161  0.96131294  0.35896299    -0.72380
O204        O  0.01553728  0.06771053  0.34725228    -0.72590
O205        O  0.94597786  0.03210834  0.35105121    -0.72450
O206        O  0.05079970  0.99656246  0.35570649    -0.72460
O207        O  0.05531892  0.00795860  0.29169815    -0.72420
O208        O  0.93962236  0.00676654  0.29061459    -0.72440
O209        O  0.99707981  0.06358612  0.28360255    -0.72380
O210        O  0.99836723  0.95032416  0.29680586    -0.72570
V211        V  0.99847341  0.01438462  0.35241603     1.35240
V212        V  0.99745406  0.00707107  0.29065114     1.35170
C213        C  0.98895801  0.93652477  0.33087435     0.76860
C214        C  0.00932484  0.08460451  0.31352730     0.76920
C215        C  0.92334464  0.02076013  0.32223140     0.76790
C216        C  0.07248245  0.00266283  0.32620820     0.76750
C217        C  0.00656340  0.20710951  0.34022251    -0.06720
C218        C  0.04395478  0.18632789  0.34213418    -0.17850
C219        C  0.04738793  0.14663808  0.32979123     0.10480
C220        C  0.01435504  0.12792926  0.31101383    -0.06650
C221        C  0.98211890  0.15138653  0.29758652    -0.17880
C222        C  0.97869045  0.19148852  0.31023292     0.10510
S223        S  0.09384689  0.12067548  0.34078926    -0.32850
S224        S  0.93686212  0.21882185  0.28903079    -0.32850
H225        H  0.92974138  0.19401672  0.25495083     0.28520
H226        H  0.08889273  0.09188613  0.30976618     0.28510
H227        H  0.07071509  0.19956081  0.35540797     0.19100
H228        H  0.95776782  0.13739647  0.28042157     0.19110
C229        C  0.11555626  0.00755989  0.33524605    -0.06720
C230        C  0.14373499  0.00751273  0.30478252    -0.17850
C231        C  0.18453357  0.01495617  0.31399346     0.10480
C232        C  0.19885995  0.01637099  0.35564008    -0.06650
C233        C  0.16871579  0.02033039  0.38401937    -0.17880
C234        C  0.12846372  0.01714070  0.37523164     0.10510
S235        S  0.21157634  0.03078252  0.27086840    -0.32850
S236        S  0.09529552  0.03139695  0.41590526    -0.32850
H237        H  0.12147145  0.02149704  0.44856673     0.28520
H238        H  0.23078316  0.06214040  0.29173443     0.28510
H239        H  0.13348487  0.00467031  0.27342541     0.19100
H240        H  0.17577021  0.03171168  0.41306440     0.19110
C241        C  0.80013239  0.00811575  0.35557912    -0.06720
C242        C  0.80988387  0.00863178  0.31379726    -0.17850
C243        C  0.84917355  0.01413523  0.30111438     0.10480
C244        C  0.88004370  0.01999797  0.33028441    -0.06650
C245        C  0.87043429  0.02160745  0.37138216    -0.17880
C246        C  0.83226083  0.01507779  0.38473217     0.10510
S247        S  0.85759379  0.01437834  0.24748443    -0.32850
S248        S  0.82994547  0.01520043  0.44003949    -0.32850
H249        H  0.79061635  0.00413014  0.44730963     0.28520
H250        H  0.88586408  0.04539004  0.24978475     0.28510
H251        H  0.78733685  0.00454704  0.29009690     0.19100
H252        H  0.89364319  0.02607651  0.39460169     0.19110
C253        C  0.99568440  0.81174783  0.36528292    -0.06720
C254        C  0.99393639  0.82240564  0.32370730    -0.17850
C255        C  0.98994924  0.86221855  0.31113111     0.10480
C256        C  0.98966499  0.89327192  0.34026113    -0.06650
C257        C  0.99322808  0.88340470  0.38125928    -0.17880
C258        C  0.99587597  0.84418524  0.39452816     0.10510
S259        S  0.98398957  0.87099402  0.25753439    -0.32850
S260        S  0.99738424  0.84116837  0.44970938    -0.32850
H261        H  0.99758423  0.80013685  0.45679756     0.28520
H262        H  0.95282244  0.89912215  0.26185831     0.28510
H263        H  0.99476462  0.79989540  0.30013096     0.19100
H264        H  0.99392705  0.90692887  0.40406085     0.19110
C265        C  0.74437374  0.11057974  0.45194914    -0.06720
C266        C  0.71661419  0.07848485  0.45264011    -0.17850
C267        C  0.71632436  0.04644433  0.42530889     0.10480
C268        C  0.74757840  0.04186272  0.39732311    -0.06650
C269        C  0.77158124  0.07668521  0.39308281    -0.17880
C270        C  0.77293446  0.10861750  0.42073860     0.10510
S271        S  0.66929936  0.02114457  0.42252525    -0.32850
S272        S  0.81334292  0.14325322  0.41372925    -0.32850
H273        H  0.83985097  0.11628576  0.39515955     0.28520
H274        H  0.66105095  0.03567796  0.38338763     0.28510
H275        H  0.69265542  0.07970170  0.47411851     0.19100
H276        H  0.79061933  0.07925189  0.36733488     0.19110
C277        C  0.69686117  0.16259410  0.48241526    -0.06720
C278        C  0.68432651  0.19018910  0.51232995    -0.17850
C279        C  0.64381840  0.20031298  0.51713441     0.10480
C280        C  0.61467923  0.18354083  0.49039537    -0.06650
C281        C  0.62736568  0.16272898  0.45628993    -0.17880
C282        C  0.66794590  0.15544559  0.44995160     0.10510
S283        S  0.63228170  0.23380216  0.55848458    -0.32850
S284        S  0.67851672  0.14315482  0.39775368    -0.32850
H285        H  0.71442855  0.16432162  0.39655838     0.28520
H286        H  0.59058519  0.22931575  0.55804430     0.28510
H287        H  0.70592321  0.20371990  0.53274932     0.19100
H288        H  0.60533104  0.15370498  0.43321756     0.19110
C289        C  0.50412858  0.15143118  0.69707813    -0.06720
C290        C  0.53805944  0.14782085  0.67231906    -0.17850
C291        C  0.53953947  0.16455489  0.63410308     0.10480
C292        C  0.50766189  0.18825285  0.61966166    -0.06650
C293        C  0.47553380  0.19620845  0.64460102    -0.17880
C294        C  0.47323546  0.17862430  0.68304931     0.10510
S295        S  0.58122340  0.15220964  0.60237033    -0.32850
S296        S  0.42823808  0.18923263  0.71043569    -0.32850
H297        H  0.41658093  0.22393562  0.68927539     0.28520
H298        H  0.59371143  0.11774943  0.62344952     0.28510
H299        H  0.56425979  0.13115047  0.68169295     0.19100
H300        H  0.45039019  0.21331533  0.63232312     0.19110
C301        C  0.48019678  0.17588531  0.37909708    -0.06720
C302        C  0.48244334  0.20591321  0.34987984    -0.17850
C303        C  0.48282736  0.19626273  0.30787623     0.10480
C304        C  0.48891986  0.15526572  0.29552862    -0.06650
C305        C  0.48175651  0.12683921  0.32576654    -0.17880
C306        C  0.47408793  0.13636380  0.36540022     0.10510
S307        S  0.47008089  0.23630665  0.27323860    -0.32850
S308        S  0.45989279  0.09469395  0.39665242    -0.32850
H309        H  0.43429002  0.11681018  0.42140335     0.28520
H310        H  0.46365151  0.26655252  0.30222830     0.28510
H311        H  0.48317584  0.23677721  0.35991114     0.19100
H312        H  0.48580508  0.09572462  0.32068267     0.19110
C313        C  0.25612960  0.10733587  0.47046062    -0.06720
C314        C  0.22541394  0.11039190  0.44016828    -0.17850
C315        C  0.22586334  0.08751956  0.40444385     0.10480
C316        C  0.25076464  0.05297743  0.40209220    -0.06650
C317        C  0.28333130  0.05148552  0.42988014    -0.17880
C318        C  0.28703025  0.07808553  0.46277717     0.10510
S319        S  0.19811057  0.10758124  0.36171006    -0.32850
S320        S  0.33217346  0.07238371  0.49358974    -0.32850
H321        H  0.35560247  0.05308288  0.46441319     0.28520
H322        H  0.23305271  0.11148632  0.33934029     0.28510
H323        H  0.20110618  0.13144707  0.44258994     0.19100
H324        H  0.30511495  0.02758914  0.42687694     0.19110
C325        C  0.29683650  0.16190806  0.50635064    -0.06720
C326        C  0.31618876  0.16429177  0.46854892    -0.17850
C327        C  0.35485893  0.17863189  0.46560578     0.10480
C328        C  0.37525276  0.19209544  0.50064189    -0.06650
C329        C  0.35336770  0.19978915  0.53545949    -0.17880
C330        C  0.31313413  0.18749264  0.53744021     0.10510
S331        S  0.37688662  0.17822214  0.41637941    -0.32850
S332        S  0.28700730  0.20174875  0.58214676    -0.32850
H333        H  0.25608279  0.22076746  0.56011348     0.28520
H334        H  0.40286684  0.21034574  0.42471635     0.28510
H335        H  0.30211197  0.15384939  0.44056219     0.19100
H336        H  0.36806254  0.21346017  0.56175848     0.19110
C337        C  0.10329016  0.74638150  0.46279960    -0.06720
C338        C  0.08781184  0.78441544  0.45191692    -0.17850
C339        C  0.06514498  0.78913576  0.41618010     0.10480
C340        C  0.03678123  0.75925210  0.40504360    -0.06650
C341        C  0.04836303  0.72050661  0.41880065    -0.17880
C342        C  0.08409353  0.71347739  0.44203794     0.10510
S343        S  0.08458296  0.82531077  0.38160691    -0.32850
S344        S  0.10495807  0.66353542  0.43835221    -0.32850
H345        H  0.06861849  0.64343435  0.43051813     0.28520
H346        H  0.07527046  0.80229491  0.34674463     0.28510
H347        H  0.09916208  0.81120981  0.46664762     0.19100
H348        H  0.03339769  0.69473172  0.40634016     0.19110
C349        C  0.15949566  0.70661631  0.50594114    -0.06720
C350        C  0.16250914  0.68821359  0.54444010    -0.17850
C351        C  0.18128099  0.65167738  0.55020102     0.10480
C352        C  0.19779646  0.63184234  0.51717622    -0.06650
C353        C  0.20236934  0.65249886  0.48101088    -0.17880
C354        C  0.18484448  0.69053877  0.47542681     0.10510
S355        S  0.17982862  0.62957923  0.59965810    -0.32850
S356        S  0.19112169  0.71397657  0.42695399    -0.32850
H357        H  0.22367114  0.69032655  0.41464855     0.28520
H358        H  0.21479397  0.60679440  0.59391040     0.28510
H359        H  0.14852699  0.70092249  0.57069300     0.19100
H360        H  0.21591565  0.63718805  0.45574853     0.19110
C361        C  0.19942814  0.50082784  0.63042910    -0.06720
C362        C  0.20028434  0.53471251  0.65548419    -0.17850
C363        C  0.18113836  0.53514492  0.69285533     0.10480
C364        C  0.15683343  0.50215479  0.70384115    -0.06650
C365        C  0.16459215  0.46590424  0.68237351    -0.17880
C366        C  0.18520753  0.46509710  0.64623352     0.10510
S367        S  0.18829700  0.57922225  0.72343356    -0.32850
S368        S  0.18993670  0.41793968  0.61985465    -0.32850
H369        H  0.22072098  0.43005760  0.59455039     0.28520
H370        H  0.21043561  0.55866841  0.75362103     0.28510
H371        H  0.21423309  0.56161268  0.64511311     0.19100
H372        H  0.15356454  0.43755041  0.69259510     0.19110
C373        C  0.14491599  0.51674754  0.30491543    -0.06720
C374        C  0.11576023  0.52013880  0.33506998    -0.17850
C375        C  0.12455307  0.52451406  0.37594214     0.10480
C376        C  0.16480006  0.52271350  0.39014780    -0.06650
C377        C  0.19491910  0.52149449  0.36144120    -0.17880
C378        C  0.18592197  0.52084084  0.31937632     0.10510
S379        S  0.08147174  0.53054881  0.40746160    -0.32850
S380        S  0.22951540  0.52585580  0.28898922    -0.32850
H381        H  0.21313283  0.55614808  0.26482914     0.28520
H382        H  0.09448773  0.56780594  0.42278506     0.28510
H383        H  0.08453492  0.51752321  0.32729434     0.19100
H384        H  0.22600248  0.52199587  0.37191501     0.19110
C385        C  0.16035141  0.23207299  0.50042272    -0.06720
C386        C  0.16018353  0.20301265  0.53144423    -0.17850
C387        C  0.19080222  0.17417574  0.53814043     0.10480
C388        C  0.22170858  0.16818651  0.50899324    -0.06650
C389        C  0.21945562  0.19496804  0.47579842    -0.17880
C390        C  0.18921931  0.22425307  0.47006720     0.10510
S391        S  0.18671438  0.15018528  0.58683616    -0.32850
S392        S  0.18807246  0.24719061  0.42078856    -0.32850
H393        H  0.20134233  0.28469484  0.43416007     0.28520
H394        H  0.22718276  0.15173377  0.59855345     0.28510
H395        H  0.13560532  0.20146577  0.55158515     0.19100
H396        H  0.24099324  0.19186310  0.45211240     0.19110
C397        C  0.10458247  0.26108572  0.45654182    -0.06720
C398        C  0.08153289  0.22585798  0.45394247    -0.17850
C399        C  0.04874489  0.22115364  0.42671872     0.10480
C400        C  0.03904993  0.25084845  0.39694939    -0.06650
C401        C  0.06558602  0.28392502  0.39629763    -0.17880
C402        C  0.09843993  0.28878906  0.42415783     0.10510
S403        S  0.01971894  0.17624392  0.43218286    -0.32850
S404        S  0.12813044  0.33305442  0.41862276    -0.32850
H405        H  0.09468257  0.35853025  0.41398606     0.28520
H406        H  0.05210417  0.15198706  0.44531982     0.28510
H407        H  0.08626924  0.20335299  0.47701561     0.19100
H408        H  0.05996325  0.30811662  0.37569824     0.19110
C409        C  0.16865864  0.39511404  0.50787952    -0.06720
C410        C  0.19753708  0.36544104  0.50005581    -0.17850
C411        C  0.18823939  0.32417977  0.50240616     0.10480
C412        C  0.14727254  0.31163968  0.50550713    -0.06650
C413        C  0.12183364  0.34268589  0.51973960    -0.17880
C414        C  0.13133043  0.38261388  0.52131194     0.10510
S415        S  0.23101449  0.29288866  0.51335888    -0.32850
S416        S  0.09397468  0.41494515  0.54385559    -0.32850
H417        H  0.12146486  0.43622396  0.56860345     0.28520
H418        H  0.21275954  0.27550010  0.54674209     0.28510
H419        H  0.22814093  0.37434087  0.49503397     0.19100
H420        H  0.09446293  0.33720715  0.53412139     0.19110
C421        C  0.24478655  0.03556004  0.59818419    -0.06720
C422        C  0.28090891  0.05735665  0.59767799    -0.17850
C423        C  0.28635074  0.09188810  0.57407968     0.10480
C424        C  0.25595059  0.10424916  0.54476473    -0.06650
C425        C  0.22109245  0.08053566  0.54354974    -0.17880
C426        C  0.21446720  0.04841825  0.56963295     0.10510
S427        S  0.33504743  0.11420135  0.58198775    -0.32850
S428        S  0.16626163  0.02476912  0.56374046    -0.32850
H429        H  0.14526023  0.05735970  0.54652739     0.28520
H430        H  0.33738762  0.10779491  0.62410537     0.28510
H431        H  0.30664054  0.04676181  0.61506049     0.19100
H432        H  0.19775078  0.08785778  0.52130919     0.19110
C433        C  0.20114638  0.00325859  0.65302830    -0.06720
C434        C  0.18337074  0.04180311  0.65687046    -0.17850
C435        C  0.14634607  0.04740568  0.67469397     0.10480
C436        C  0.12485626  0.01391882  0.68660116    -0.06650
C437        C  0.14560563  0.97815558  0.69236357    -0.17880
C438        C  0.18513854  0.97382042  0.67935368     0.10510
S439        S  0.13037120  0.09770733  0.68591832    -0.32850
S440        S  0.21193942  0.93021947  0.69648853    -0.32850
H441        H  0.18571289  0.91938253  0.72710961     0.28520
H442        H  0.09794252  0.08697513  0.70976227     0.28510
H443        H  0.19809254  0.06827044  0.64635815     0.19100
H444        H  0.13019440  0.95296002  0.70501316     0.19110
C445        C  0.03567230  0.26285964  0.59401791    -0.06720
C446        C  0.02614478  0.27684898  0.55508428    -0.17850
C447        C  0.05401382  0.27863421  0.52470478     0.10480
C448        C  0.09482253  0.26550337  0.53164723    -0.06650
C449        C  0.10618763  0.26358262  0.57301654    -0.17880
C450        C  0.07791019  0.26206165  0.60380534     0.10510
S451        S  0.03854801  0.31178743  0.48455794    -0.32850
S452        S  0.09947977  0.25849952  0.65373016    -0.32850
H453        H  0.09118872  0.29897722  0.66213062     0.28520
H454        H  0.02768428  0.34320706  0.51084604     0.28510
H455        H  0.99652623  0.28849960  0.54809289     0.19100
H456        H  0.13780720  0.26327338  0.58151273     0.19110
C457        C  0.00451551  0.20881150  0.64088370    -0.06720
C458        C  0.03529742  0.18318939  0.62810254    -0.17850
C459        C  0.03544201  0.14283092  0.63612237     0.10480
C460        C  0.00797852  0.12727512  0.66364611    -0.06650
C461        C  0.97923243  0.15265317  0.68007387    -0.17880
C462        C  0.97574023  0.19262617  0.66761545     0.10510
S463        S  0.06751788  0.11341863  0.60396278    -0.32850
S464        S  0.93499915  0.22220567  0.68735021    -0.32850
H465        H  0.91934736  0.19320981  0.71299190     0.28520
H466        H  0.07253365  0.08178709  0.63023320     0.28510
H467        H  0.05665964  0.19237191  0.60639800     0.19100
H468        H  0.95748095  0.14019055  0.70005651     0.19110
C469        C  0.04286678  0.76010145  0.59825425    -0.06720
C470        C  0.04716355  0.72403752  0.57743984    -0.17850
C471        C  0.07479958  0.71805444  0.54689551     0.10480
C472        C  0.10241145  0.74901333  0.53625806    -0.06650
C473        C  0.09957267  0.78465113  0.55858168    -0.17880
C474        C  0.07426842  0.78907274  0.59158230     0.10510
S475        S  0.07408036  0.66808940  0.52622324    -0.32850
S476        S  0.08959384  0.83082574  0.62401293    -0.32850
H477        H  0.07877885  0.81535764  0.66119121     0.28520
H478        H  0.03244538  0.66223295  0.52864210     0.28510
H479        H  0.02953470  0.69901135  0.58610986     0.19100
H480        H  0.11871649  0.80943511  0.55172250     0.19110
C481        C  0.00270148  0.80924946  0.63823112    -0.06720
C482        C  0.00347576  0.82012959  0.68007295    -0.17850
C483        C  0.00527851  0.86023369  0.69273392     0.10480
C484        C  0.00371534  0.89039692  0.66338709    -0.06650
C485        C  0.99919691  0.87967973  0.62237764    -0.17880
C486        C  0.00057039  0.84076919  0.60899965     0.10510
S487        S  0.01106599  0.87068331  0.74612109    -0.32850
S488        S  0.00036621  0.83694254  0.55370372    -0.32850
H489        H  0.00075334  0.79594358  0.54579495     0.28520
H490        H  0.04157775  0.89893690  0.74138901     0.28510
H491        H  0.00456461  0.79772521  0.70344481     0.19100
H492        H  0.99579029  0.90234506  0.59923003     0.19110
C493        C  0.75026938  0.05024737  0.58372352    -0.06720
C494        C  0.77862459  0.05500236  0.55324436    -0.17850
C495        C  0.77954821  0.08865469  0.52873471     0.10480
C496        C  0.74512464  0.11385666  0.52464516    -0.06650
C497        C  0.71399582  0.10683199  0.55160583    -0.17880
C498        C  0.71708142  0.07831752  0.58271903     0.10510
S499        S  0.82594077  0.09838236  0.50366145    -0.32850
S500        S  0.67679568  0.08361490  0.61795103    -0.32850
H501        H  0.66536927  0.04381870  0.62117630     0.28520
H502        H  0.85070562  0.07226271  0.52648745     0.28510
H503        H  0.80339366  0.03406699  0.55160756     0.19100
H504        H  0.68678877  0.12429404  0.54948453     0.19110
C505        C  0.80305210  0.01731197  0.63334771    -0.06720
C506        C  0.81700838  0.98431901  0.65694270    -0.17850
C507        C  0.85803171  0.97850574  0.66694279     0.10480
C508        C  0.88603051  0.00704790  0.65485387    -0.06650
C509        C  0.87233065  0.04182836  0.63684075    -0.17880
C510        C  0.83184293  0.04892473  0.62873046     0.10510
S511        S  0.87277783  0.93305346  0.69242951    -0.32850
S512        S  0.82389837  0.10120903  0.61848689    -0.32850
H513        H  0.78288419  0.10501327  0.62290139     0.28520
H514        H  0.91224441  0.93142210  0.67874194     0.28510
H515        H  0.79636194  0.96071052  0.66401226     0.19100
H516        H  0.89392622  0.06503128  0.63070956     0.19110
C517        C  0.00148473  0.34679178  0.27719435    -0.06720
C518        C  0.96748297  0.33946574  0.30023575    -0.17850
C519        C  0.96426980  0.30651219  0.32583764     0.10480
C520        C  0.99819562  0.28136611  0.33457369    -0.06650
C521        C  0.03116370  0.28669404  0.30915399    -0.17880
C522        C  0.03342972  0.31795486  0.28096374     0.10510
S523        S  0.91374877  0.29436332  0.33859709    -0.32850
S524        S  0.07973102  0.31912661  0.25368313    -0.32850
H525        H  0.06550558  0.33665194  0.21792293     0.28520
H526        H  0.89309228  0.31603956  0.30808214     0.28510
H527        H  0.94128881  0.35820503  0.29667597     0.19100
H528        H  0.05650052  0.26642299  0.31208218     0.19110
C529        C  0.10503888  0.46796751  0.25630824    -0.06720
C530        C  0.09690119  0.44415154  0.29043757    -0.17850
C531        C  0.06552940  0.41571711  0.29015038     0.10480
C532        C  0.04287534  0.40738995  0.25321120    -0.06650
C533        C  0.06324003  0.42029483  0.21861867    -0.17880
C534        C  0.08785663  0.45360145  0.21908700     0.10510
S535        S  0.06298573  0.38630586  0.33576207    -0.32850
S536        S  0.09280976  0.47588780  0.17011422    -0.32850
H537        H  0.08211809  0.51402111  0.18303998     0.28520
H538        H  0.07807362  0.41566876  0.36283212     0.28510
H539        H  0.11463400  0.44760825  0.31800790     0.19100
H540        H  0.06031007  0.40560211  0.18971549     0.19110
C541        C  0.99615308  0.36898337  0.20184462    -0.06720
C542        C  0.99215727  0.39989856  0.17284743    -0.17850
C543        C  0.99546945  0.39339138  0.13170243     0.10480
C544        C  0.00238251  0.35430801  0.11679427    -0.06650
C545        C  0.99906134  0.32241311  0.14368272    -0.17880
C546        C  0.99328020  0.32903752  0.18555177     0.10510
S547        S  0.98965821  0.43711766  0.10038023    -0.32850
S548        S  0.97565724  0.28690293  0.21374913    -0.32850
H549        H  0.98386750  0.25678545  0.18513335     0.28520
H550        H  0.03132846  0.44337182  0.10010376     0.28510
H551        H  0.98983319  0.43074543  0.18292801     0.19100
H552        H  0.99960127  0.29229158  0.13151250     0.19110
C553        C  0.20596134  0.35652247  0.98948783    -0.06720
C554        C  0.18248728  0.36084540  0.95318070    -0.17850
C555        C  0.14221573  0.35058757  0.95073292     0.10480
C556        C  0.12436521  0.33382061  0.98439250    -0.06650
C557        C  0.14861277  0.32090156  0.01676740    -0.17880
C558        C  0.18949944  0.33069397  0.01929865     0.10510
S559        S  0.11443016  0.36204255  0.90465074    -0.32850
S560        S  0.21599551  0.31554927  0.06500666    -0.32850
H561        H  0.19064406  0.28377197  0.07462084     0.28520
H562        H  0.08591165  0.33174160  0.90892046     0.28510
H563        H  0.19411152  0.37500458  0.92677315     0.19100
H564        H  0.13467557  0.30662965  0.04206694     0.19110
C565        C  0.99417006  0.34855443  0.71464983    -0.06720
C566        C  0.01985915  0.31563406  0.72132128    -0.17850
C567        C  0.01761081  0.28119030  0.69691496     0.10480
C568        C  0.99994536  0.28422419  0.65660520    -0.06650
C569        C  0.98282355  0.32186549  0.64707080    -0.17880
C570        C  0.97075624  0.34738953  0.67830382     0.10510
S571        S  0.03820216  0.23640890  0.72063017    -0.32850
S572        S  0.91852550  0.36154677  0.67557029    -0.32850
H573        H  0.91226775  0.35653568  0.71713551     0.28520
H574        H  0.03511493  0.24912373  0.76120839     0.28510
H575        H  0.03816664  0.31463405  0.74862702     0.19100
H576        H  0.97153410  0.32794296  0.61670193     0.19110
C577        C  0.04023071  0.40316410  0.73855348    -0.06720
C578        C  0.04827461  0.42306348  0.70285279    -0.17850
C579        C  0.07485696  0.45539038  0.70227563     0.10480
C580        C  0.10087923  0.46306676  0.73670592    -0.06650
C581        C  0.10215946  0.43293925  0.76650997    -0.17880
C582        C  0.07427549  0.40162923  0.76606947     0.10510
S583        S  0.07420996  0.48586813  0.65714129    -0.32850
S584        S  0.08678144  0.35843381  0.79686813    -0.32850
H585        H  0.12630424  0.36937349  0.80781527     0.28520
H586        H  0.05312211  0.45919276  0.63136089     0.28510
H587        H  0.03535674  0.41177232  0.67510053     0.19100
H588        H  0.12331505  0.43408659  0.79167484     0.19110
C589        C  0.99654598  0.37002410  0.79040231    -0.06720
C590        C  0.00734675  0.39975596  0.81916068    -0.17850
C591        C  0.01120345  0.39267748  0.86019300     0.10480
C592        C  0.00041381  0.35507836  0.87552642    -0.06650
C593        C  0.98532246  0.32597928  0.84837999    -0.17880
C594        C  0.98137554  0.33347740  0.80627166     0.10510
S595        S  0.03251684  0.43279505  0.89089980    -0.32850
S596        S  0.94933461  0.30013503  0.77680542    -0.32850
H597        H  0.95155022  0.26766597  0.80358347     0.28520
H598        H  0.01004065  0.46309283  0.87134989     0.28510
H599        H  0.01402443  0.42932927  0.80878791     0.19100
H600        H  0.97390491  0.29853500  0.86061211     0.19110
C601        C  0.80210913  0.36767749  0.00127094    -0.06720
C602        C  0.82814068  0.40106453  0.00038500    -0.17850
C603        C  0.86935764  0.39788162  0.00224527     0.10480
C604        C  0.88732477  0.35980431  0.00350740    -0.06650
C605        C  0.86266739  0.32601639  0.00527366    -0.17880
C606        C  0.82053650  0.32907377  0.00515239     0.10510
S607        S  0.89644330  0.44435014  0.00172633    -0.32850
S608        S  0.79363061  0.28319997  0.01334813    -0.32850
H609        H  0.82468355  0.25624145  0.00427941     0.28520
H610        H  0.91345050  0.43824168  0.04074380     0.28510
H611        H  0.81594836  0.43099597  0.99752239     0.19100
H612        H  0.87671967  0.29687190  0.00777076     0.19110
C613        C  0.74303820  0.47533614  0.09527204    -0.06720
C614        C  0.76643382  0.44045904  0.10423618    -0.17850
C615        C  0.76771490  0.40713976  0.07685170     0.10480
C616        C  0.75309833  0.41122691  0.03547357    -0.06650
C617        C  0.74340370  0.45105717  0.02599172    -0.17880
C618        C  0.72820897  0.47682633  0.05419296     0.10510
S619        S  0.79271880  0.36328751  0.09688405    -0.32850
S620        S  0.68710119  0.50571521  0.03285023    -0.32850
H621        H  0.66025687  0.49702548  0.06315143     0.28520
H622        H  0.77065051  0.33514347  0.07465007     0.28510
H623        H  0.78167412  0.43681022  0.13300750     0.19100
H624        H  0.74496552  0.46323912  0.99618624     0.19110
C625        C  0.69119482  0.50413243  0.14504018    -0.06720
C626        C  0.67849134  0.53163229  0.17525552    -0.17850
C627        C  0.63854541  0.53387485  0.18760646     0.10480
C628        C  0.61047887  0.50661075  0.17133367    -0.06650
C629        C  0.62383934  0.47528478  0.14725005    -0.17880
C630        C  0.66385648  0.47164695  0.13638667     0.10510
S631        S  0.62486755  0.57398660  0.22137879    -0.32850
S632        S  0.67623108  0.42356331  0.11425493    -0.32850
H633        H  0.64303682  0.40177851  0.12709930     0.28520
H634        H  0.58635312  0.58047829  0.20419784     0.28510
H635        H  0.69907238  0.55317781  0.18803358     0.19100
H636        H  0.60230449  0.45300437  0.13696454     0.19110
C637        C  0.50658672  0.70973645  0.15292613    -0.06720
C638        C  0.50355980  0.68134142  0.12070575    -0.17850
C639        C  0.49921793  0.64088234  0.12638739     0.10480
C640        C  0.49540220  0.62604472  0.16592554    -0.06650
C641        C  0.49793430  0.65292711  0.19870308    -0.17880
C642        C  0.50388817  0.69427212  0.19330062     0.10510
S643        S  0.50160270  0.61056127  0.08094290    -0.32850
S644        S  0.50758341  0.72398527  0.23928269    -0.32850
H645        H  0.51341735  0.69272653  0.26709283     0.28520
H646        H  0.53343408  0.58687610  0.09648049     0.28510
H647        H  0.50529171  0.69123145  0.08959108     0.19100
H648        H  0.49509242  0.64127008  0.22895996     0.19110
C649        C  0.50598127  0.23105979  0.15624072    -0.06720
C650        C  0.53435011  0.22992976  0.18888998    -0.17850
C651        C  0.53338342  0.20141655  0.22004553     0.10480
C652        C  0.50382139  0.17081390  0.21879438    -0.06650
C653        C  0.48403983  0.16578373  0.18072867    -0.17880
C654        C  0.48531085  0.19397700  0.14974848     0.10510
S655        S  0.57138294  0.20458663  0.25997590    -0.32850
S656        S  0.46893628  0.17399898  0.10103060    -0.32850
H657        H  0.50451904  0.18471932  0.08231554     0.28520
H658        H  0.58391379  0.24374490  0.25205829     0.28510
H659        H  0.56007282  0.24920379  0.18812773     0.19100
H660        H  0.46993831  0.13770939  0.17305818     0.19110
C661        C  0.49527770  0.31020673  0.14796110    -0.06720
C662        C  0.51448191  0.32135385  0.18570093    -0.17850
C663        C  0.51273587  0.36038845  0.20190115     0.10480
C664        C  0.48776288  0.38871920  0.18298695    -0.06650
C665        C  0.46330854  0.37664223  0.15066314    -0.17880
C666        C  0.47005782  0.34126957  0.13000213     0.10510
S667        S  0.54430393  0.37244758  0.24544517    -0.32850
S668        S  0.45266640  0.34551051  0.07759622    -0.32850
H669        H  0.46180991  0.38616091  0.07233390     0.28520
H670        H  0.55510826  0.41058801  0.23223170     0.28510
H671        H  0.53385025  0.30198552  0.20242554     0.19100
H672        H  0.44387113  0.39876496  0.13631679     0.19110
C673        C  0.16001882  0.50905357  0.22659516    -0.06720
C674        C  0.15942760  0.53850013  0.19626087    -0.17850
C675        C  0.18740930  0.54092915  0.16558438     0.10480
C676        C  0.21640292  0.50945516  0.16025695    -0.06650
C677        C  0.21651774  0.47932209  0.19019860    -0.17880
C678        C  0.18879911  0.47765562  0.22148682     0.10510
S679        S  0.18133719  0.58708062  0.13782779    -0.32850
S680        S  0.19189165  0.43253423  0.25133790    -0.32850
H681        H  0.18072738  0.44863708  0.28843081     0.28520
H682        H  0.22119848  0.59863533  0.13630610     0.28510
H683        H  0.13579494  0.56035234  0.19485766     0.19100
H684        H  0.23771901  0.45485322  0.18801716     0.19110
C685        C  0.24788690  0.46692488  0.09891294    -0.06720
C686        C  0.28060523  0.46209712  0.07258314    -0.17850
C687        C  0.28364021  0.43093644  0.04392791     0.10480
C688        C  0.25020550  0.40583996  0.03506263    -0.06650
C689        C  0.21789813  0.41006088  0.06164934    -0.17880
C690        C  0.21741881  0.43704575  0.09449844     0.10510
S691        S  0.33078464  0.42519792  0.01873737    -0.32850
S692        S  0.17589533  0.42867704  0.12702217    -0.32850
H693        H  0.16076573  0.46741955  0.12552685     0.28520
H694        H  0.35387901  0.45018605  0.04460064     0.28510
H695        H  0.30508996  0.48305918  0.07514141     0.19100
H696        H  0.19058278  0.39393076  0.05626586     0.19110
C697        C  0.37097809  0.50158325  0.18414425    -0.06720
C698        C  0.34822488  0.53642866  0.18810010    -0.17850
C699        C  0.30766101  0.53750771  0.17550781     0.10480
C700        C  0.29038657  0.50426944  0.15365441    -0.06650
C701        C  0.31175243  0.46768647  0.15781330    -0.17880
C702        C  0.35131339  0.46614780  0.17251858     0.10510
S703        S  0.28195845  0.58345909  0.18567808    -0.32850
S704        S  0.37496115  0.41785342  0.17575455    -0.32850
H705        H  0.40401826  0.42890988  0.20540044     0.28520
H706        H  0.25391986  0.56468975  0.20967488     0.28510
H707        H  0.36255566  0.56347597  0.19934711     0.19100
H708        H  0.29819816  0.43962490  0.14872548     0.19110
C709        C  0.72647703  0.00606013  0.33141446    -0.06720
C710        C  0.71319552  0.04430966  0.31835372    -0.17850
C711        C  0.68609468  0.05014764  0.28600044     0.10480
C712        C  0.67044266  0.01651441  0.26465278    -0.06650
C713        C  0.68970043  0.97935953  0.27204958    -0.17880
C714        C  0.71675294  0.97341633  0.30483187     0.10510
S715        S  0.67834761  0.10119087  0.26963356    -0.32850
S716        S  0.73887485  0.92415153  0.30978347    -0.32850
H717        H  0.71925852  0.90545067  0.27652070     0.28520
H718        H  0.68745515  0.11991458  0.30706193     0.28510
H719        H  0.72484132  0.07095649  0.33244527     0.19100
H720        H  0.68196786  0.95421433  0.25265159     0.19110
C721        C  0.60527643  0.05544233  0.24162485    -0.06720
C722        C  0.59146081  0.06621692  0.28027953    -0.17850
C723        C  0.56515192  0.09876004  0.28664124     0.10480
C724        C  0.54239617  0.11491427  0.25275425    -0.06650
C725        C  0.55778827  0.10483628  0.21449566    -0.17880
C726        C  0.59307507  0.08296578  0.21046764     0.10510
S727        S  0.56980722  0.11969418  0.33724396    -0.32850
S728        S  0.62364837  0.10103614  0.16991550    -0.32850
H729        H  0.66085709  0.09252015  0.18861353     0.28520
H730        H  0.56226492  0.15940162  0.32668024     0.28510
H731        H  0.60605982  0.05384025  0.30654534     0.19100
H732        H  0.54515040  0.11752296  0.18702407     0.19110
C733        C  0.65568821  0.00740757  0.10477437    -0.06720
C734        C  0.68874434  0.01050184  0.13178485    -0.17850
C735        C  0.68443370  0.01519485  0.17371240     0.10480
C736        C  0.64495871  0.01501702  0.18994194    -0.06650
C737        C  0.61217492  0.01244913  0.16158697    -0.17880
C738        C  0.61681018  0.00925174  0.12020969     0.10510
S739        S  0.73032674  0.02612864  0.20221664    -0.32850
S740        S  0.57115043  0.00964753  0.08960145    -0.32850
H741        H  0.58239221  0.04362063  0.06785416     0.28520
H742        H  0.75707403  0.00753263  0.17566773     0.28510
H743        H  0.71854154  0.01078244  0.11968871     0.19100
H744        H  0.58176698  0.01307252  0.17233322     0.19110
C745        C  0.72620636  0.34275979  0.00056459    -0.06720
C746        C  0.70283028  0.33767408  0.03458671    -0.17850
C747        C  0.67519839  0.30650546  0.03841868     0.10480
C748        C  0.66358328  0.28169711  0.00373031    -0.06650
C749        C  0.68685470  0.28707599  0.96915065    -0.17880
C750        C  0.71817902  0.31547555  0.96740676     0.10510
S751        S  0.65855458  0.30176750  0.08990545    -0.32850
S752        S  0.74818907  0.31447916  0.92260019    -0.32850
H753        H  0.72629367  0.28567052  0.90016911     0.28520
H754        H  0.69363371  0.31591489  0.10984387     0.28510
H755        H  0.70645434  0.35810766  0.05976710     0.19100
H756        H  0.68031347  0.26836324  0.94293678     0.19110
C757        C  0.59954843  0.25858910  0.03813173    -0.06720
C758        C  0.57577153  0.29330490  0.04171908    -0.17850
C759        C  0.55498371  0.30227806  0.07699922     0.10480
C760        C  0.54582266  0.27113665  0.10446807    -0.06650
C761        C  0.57089362  0.23706694  0.10209145    -0.17880
C762        C  0.60058128  0.23322658  0.07339473     0.10510
S763        S  0.55120278  0.35471163  0.08859902    -0.32850
S764        S  0.64024537  0.19853733  0.08852656    -0.32850
H765        H  0.67167467  0.22064701  0.07269207     0.28520
H766        H  0.56609061  0.35003623  0.12858199     0.28510
H767        H  0.57560121  0.31570858  0.01900532     0.19100
H768        H  0.56871526  0.21260895  0.12289752     0.19110
C769        C  0.63826098  0.20682086  0.99924854    -0.06720
C770        C  0.67870698  0.19435085  0.99497375    -0.17850
C771        C  0.68980215  0.15373776  0.99198643     0.10480
C772        C  0.66023830  0.12373572  0.99277080    -0.06650
C773        C  0.62052640  0.13556672  0.99858732    -0.17880
C774        C  0.60878080  0.17538803  0.00151225     0.10510
S775        S  0.74213220  0.14244663  0.98659134    -0.32850
S776        S  0.55476791  0.18101631  0.00718359    -0.32850
H777        H  0.54793691  0.22014217  0.99455677     0.28520
H778        H  0.74413088  0.11861388  0.02153013     0.28510
H779        H  0.70255131  0.21588336  0.99436963     0.19100
H780        H  0.59738613  0.11313521  0.00048386     0.19110
C781        C  0.66960405  0.00170045  0.71014918    -0.06720
C782        C  0.69245597  0.03614050  0.70492379    -0.17850
C783        C  0.72511799  0.03795632  0.67968425     0.10480
C784        C  0.72994496  0.00898885  0.64849551    -0.06650
C785        C  0.70850609  0.97314088  0.65392423    -0.17880
C786        C  0.68149351  0.96780526  0.68567928     0.10510
S787        S  0.75835541  0.07864990  0.69057282    -0.32850
S788        S  0.66884772  0.91569073  0.69232184    -0.32850
H789        H  0.66699480  0.91515446  0.73433757     0.28520
H790        H  0.78770914  0.05341705  0.70833412     0.28510
H791        H  0.68681261  0.06189289  0.72311343     0.19100
H792        H  0.71475083  0.94737596  0.63515066     0.19110
C793        C  0.60938238  0.04277045  0.74092277    -0.06720
C794        C  0.57942411  0.04235113  0.71008516    -0.17850
C795        C  0.54423564  0.06584976  0.71093642     0.10480
C796        C  0.53918151  0.09657048  0.74132144    -0.06650
C797        C  0.57041617  0.09866251  0.77089227    -0.17880
C798        C  0.60722421  0.07806515  0.76601481     0.10510
S799        S  0.50928371  0.05708049  0.66904107    -0.32850
S800        S  0.64617605  0.11497789  0.76262934    -0.32850
H801        H  0.63709553  0.13546193  0.79870232     0.28520
H802        H  0.51791763  0.01609843  0.66451768     0.28510
H803        H  0.58379130  0.02479202  0.68334151     0.19100
H804        H  0.57024134  0.12315447  0.79237051     0.19110
C805        C  0.66825542  0.00711616  0.78471348    -0.06720
C806        C  0.69076648  0.97418823  0.79996844    -0.17850
C807        C  0.70302505  0.97406368  0.84139900     0.10480
C808        C  0.68968019  0.00596299  0.86646053    -0.06650
C809        C  0.67319788  0.03993910  0.84814713    -0.17880
C810        C  0.67582664  0.04277286  0.80669295     0.10510
S811        S  0.73080259  0.93170344  0.86056771    -0.32850
S812        S  0.72198734  0.06901990  0.79724578    -0.32850
H813        H  0.74006579  0.03782940  0.77535494     0.28520
H814        H  0.74917942  0.95217312  0.89335942     0.28510
H815        H  0.69561311  0.94787890  0.78190762     0.19100
H816        H  0.66721723  0.06647727  0.86614719     0.19110
C817        C  0.61193321  0.76545225  0.05351527    -0.06720
C818        C  0.59684061  0.72832446  0.06604845    -0.17850
C819        C  0.57511883  0.72478984  0.10145057     0.10480
C820        C  0.55178113  0.75774899  0.11528822    -0.06650
C821        C  0.56804778  0.79495533  0.10539212    -0.17880
C822        C  0.59742135  0.79980508  0.07561537     0.10510
S823        S  0.59219388  0.68451368  0.13415098    -0.32850
S824        S  0.60971598  0.85105287  0.06431575    -0.32850
H825        H  0.57672090  0.87002214  0.08183670     0.28520
H826        H  0.58715892  0.70637858  0.17027938     0.28510
H827        H  0.60752855  0.70110315  0.05202620     0.19100
H828        H  0.55743281  0.82095366  0.12113055     0.19110
C829        C  0.65697788  0.80525162  0.00149458    -0.06720
C830        C  0.64860478  0.82321895  0.96325324    -0.17850
C831        C  0.65856331  0.86249758  0.95521508     0.10480
C832        C  0.68118809  0.88437502  0.98415510    -0.06650
C833        C  0.69796305  0.86446320  0.01756795    -0.17880
C834        C  0.68684789  0.82511831  0.02623310     0.10510
S835        S  0.63911182  0.88316796  0.90817245    -0.32850
S836        S  0.70817817  0.80584182  0.07226130    -0.32850
H837        H  0.73616915  0.78243877  0.05132954     0.28520
H838        H  0.66417812  0.91651198  0.90779021     0.28510
H839        H  0.63251498  0.80774964  0.93910574     0.19100
H840        H  0.71679257  0.88082387  0.03919974     0.19110
C841        C  0.99626158  0.66872695  0.28453530    -0.06720
C842        C  0.96335808  0.69560462  0.28631871    -0.17850
C843        C  0.96166493  0.72721326  0.31513102     0.10480
C844        C  0.99613309  0.73696478  0.34001052    -0.06650
C845        C  0.03116954  0.71538024  0.33058977    -0.17880
C846        C  0.02910346  0.67771754  0.31188272     0.10510
S847        S  0.91546732  0.75496531  0.31699551    -0.32850
S848        S  0.06069631  0.64051016  0.33672985    -0.32850
H849        H  0.09339825  0.66581297  0.34541834     0.28520
H850        H  0.89088499  0.72666533  0.29684712     0.28510
H851        H  0.93764906  0.69020838  0.26630706     0.19100
H852        H  0.05981224  0.72413679  0.34361613     0.19110
C853        C  0.09401533  0.54371782  0.25518135    -0.06720
C854        C  0.05323421  0.53363208  0.26091361    -0.17850
C855        C  0.02516193  0.56201522  0.27273738     0.10480
C856        C  0.02980863  0.60237206  0.26120272    -0.06650
C857        C  0.06946376  0.61330279  0.25173463    -0.17880
C858        C  0.10161787  0.58584212  0.25503282     0.10510
S859        S  0.99564236  0.54746627  0.31483948    -0.32850
S860        S  0.15055309  0.60733501  0.26164357    -0.32850
H861        H  0.15029542  0.60287693  0.30399677     0.28520
H862        H  0.01664140  0.51256051  0.32556358     0.28510
H863        H  0.04385078  0.50326504  0.26488741     0.19100
H864        H  0.07582308  0.64434435  0.24559893     0.19110
C865        C  0.00035907  0.64851312  0.20799395    -0.06720
C866        C  0.99338850  0.68927022  0.19676861    -0.17850
C867        C  0.99530910  0.70272713  0.15625191     0.10480
C868        C  0.00681535  0.67601091  0.12551009    -0.06650
C869        C  0.01910021  0.63772309  0.13710905    -0.17880
C870        C  0.01377297  0.62279935  0.17567838     0.10510
S871        S  0.98145758  0.75365548  0.14563821    -0.32850
S872        S  0.01835478  0.56880669  0.17792820    -0.32850
H873        H  0.04677453  0.56395599  0.14756462     0.28520
H874        H  0.01479185  0.76050241  0.12159042     0.28510
H875        H  0.98538956  0.71161520  0.21861389     0.19100
H876        H  0.02982382  0.61729860  0.11418168     0.19110
C877        C  0.24945760  0.60486701  0.03669158    -0.06720
C878        C  0.21774472  0.57712146  0.03841898    -0.17850
C879        C  0.21669563  0.54610299  0.06648738     0.10480
C880        C  0.24905222  0.54036629  0.09516947    -0.06650
C881        C  0.28344451  0.56379307  0.08874757    -0.17880
C882        C  0.28423163  0.59547668  0.06092811     0.10510
S883        S  0.17190713  0.51619590  0.06518187    -0.32850
S884        S  0.33294319  0.61553644  0.05159443    -0.32850
H885        H  0.35178979  0.60462382  0.08860890     0.28520
H886        H  0.14663687  0.54272415  0.04345079     0.28510
H887        H  0.19279093  0.58021107  0.01696427     0.19100
H888        H  0.31154640  0.55564304  0.10313895     0.19110
C889        C  0.12362461  0.68519700  0.01278941    -0.06720
C890        C  0.14680053  0.69988128  0.98160875    -0.17850
C891        C  0.18776698  0.68942191  0.97935298     0.10480
C892        C  0.20449631  0.66101253  0.00737823    -0.06650
C893        C  0.18332948  0.65715226  0.04390863    -0.17880
C894        C  0.14300224  0.66739482  0.04617451     0.10510
S895        S  0.21515613  0.70869066  0.93758554    -0.32850
S896        S  0.11728534  0.65642965  0.09203851    -0.32850
H897        H  0.09017833  0.68866175  0.08867754     0.28520
H898        H  0.18731415  0.73856731  0.92613517     0.28510
H899        H  0.13215093  0.71643819  0.95726569     0.19100
H900        H  0.19732567  0.64448847  0.07079748     0.19110
C901        C  0.73034238  0.66873748  0.99977416    -0.06720
C902        C  0.71831425  0.68210394  0.03853707    -0.17850
C903        C  0.68868974  0.71126998  0.04513772     0.10480
C904        C  0.67057686  0.73235731  0.01139857    -0.06650
C905        C  0.69030266  0.72637537  0.97437165    -0.17880
C906        C  0.71786726  0.69476109  0.96775928     0.10510
S907        S  0.67989862  0.72093397  0.09840663    -0.32850
S908        S  0.73597491  0.69139400  0.91755963    -0.32850
H909        H  0.77218365  0.71022727  0.92900978     0.28520
H910        H  0.71889487  0.71251947  0.11353287     0.28510
H911        H  0.73248603  0.66947575  0.06530239     0.19100
H912        H  0.68193040  0.74507373  0.94883527     0.19110
C913        C  0.75799810  0.60632370  0.03750336    -0.06720
C914        C  0.71841275  0.59676788  0.04869736    -0.17850
C915        C  0.70964964  0.57483752  0.08344930     0.10480
C916        C  0.73974706  0.54856301  0.09984487    -0.06650
C917        C  0.77916364  0.55530905  0.08636960    -0.17880
C918        C  0.78897269  0.58795645  0.06196093     0.10510
S919        S  0.65818280  0.57732570  0.09889053    -0.32850
S920        S  0.84049855  0.60431353  0.06639716    -0.32850
H921        H  0.85125636  0.58356369  0.10205781     0.28520
H922        H  0.64904459  0.61476755  0.08164271     0.28510
H923        H  0.69329472  0.60824652  0.03077054     0.19100
H924        H  0.80332199  0.53650386  0.09799404     0.19110
C925        C  0.80292213  0.65232030  0.99022714    -0.06720
C926        C  0.81727506  0.67851805  0.02138103    -0.17850
C927        C  0.85752177  0.69040783  0.02430097     0.10480
C928        C  0.88393869  0.67759766  0.99440342    -0.06650
C929        C  0.86861117  0.65887641  0.95970518    -0.17880
C930        C  0.82839758  0.64818195  0.95548949     0.10510
S931        S  0.87402085  0.71752855  0.06913594    -0.32850
S932        S  0.81738837  0.63020451  0.90407251    -0.32850
H933        H  0.77601989  0.62748702  0.90167845     0.28520
H934        H  0.91120654  0.69788353  0.07381964     0.28510
H935        H  0.79856397  0.68584211  0.04659836     0.19100
H936        H  0.88885781  0.65202798  0.93538008     0.19110
C937        C  0.00516268  0.73542878  0.66140464    -0.06720
C938        C  0.96825058  0.72142323  0.67534528    -0.17850
C939        C  0.96503203  0.69011241  0.70263478     0.10480
C940        C  0.00066126  0.67259914  0.72067678    -0.06650
C941        C  0.03649739  0.69328752  0.71456452    -0.17880
C942        C  0.04012491  0.72180497  0.68362709     0.10510
S943        S  0.91348495  0.68062814  0.71592765    -0.32850
S944        S  0.09038781  0.73818982  0.67430720    -0.32850
H945        H  0.11121287  0.70655497  0.69346728     0.28520
H946        H  0.92030938  0.67824554  0.75795323     0.28510
H947        H  0.94045118  0.73464279  0.66439698     0.19100
H948        H  0.06294986  0.68421208  0.73201322     0.19110
C949        C  0.09403207  0.53654662  0.74006528    -0.06720
C950        C  0.09209337  0.56661012  0.71007345    -0.17850
C951        C  0.06343586  0.59836400  0.70946401     0.10480
C952        C  0.03438472  0.60190027  0.74091420    -0.06650
C953        C  0.03238370  0.56745709  0.76550571    -0.17880
C954        C  0.06094129  0.53680151  0.76673348     0.10510
S955        S  0.06247233  0.62692832  0.66319193    -0.32850
S956        S  0.05165007  0.50090599  0.80580049    -0.32850
H957        H  0.09080216  0.49436029  0.81989896     0.28520
H958        H  0.10388265  0.62467085  0.65644674     0.28510
H959        H  0.11167178  0.56437599  0.68484869     0.19100
H960        H  0.00964590  0.56592387  0.78803315     0.19110
C961        C  0.01199510  0.67289211  0.88140754    -0.06720
C962        C  0.99254671  0.69874013  0.85431879    -0.17850
C963        C  0.99229311  0.69186923  0.81189973     0.10480
C964        C  0.01124057  0.65645973  0.79517512    -0.06650
C965        C  0.03653753  0.63604011  0.82320539    -0.17880
C966        C  0.03496971  0.64141311  0.86517164     0.10510
S967        S  0.97561649  0.73442527  0.78246585    -0.32850
S968        S  0.06354404  0.60708182  0.89684054    -0.32850
H969        H  0.05789077  0.57389600  0.87082671     0.28520
H970        H  0.95066612  0.75202974  0.81134802     0.28510
H971        H  0.97754142  0.72472362  0.86662558     0.19100
H972        H  0.05819016  0.61508258  0.81323111     0.19110
C973        C  0.34051109  0.01377346  0.28198644    -0.06720
C974        C  0.31109696  0.98348433  0.28238551    -0.17850
C975        C  0.27972841  0.98247473  0.30996170     0.10480
C976        C  0.27561930  0.01379806  0.33965522    -0.06650
C977        C  0.30293354  0.04584396  0.33652125    -0.17880
C978        C  0.33392668  0.04701554  0.30877955     0.10510
S979        S  0.24707061  0.93941293  0.30313257    -0.32850
S980        S  0.36123780  0.09379445  0.30902889    -0.32850
H981        H  0.32940945  0.11895606  0.32033553     0.28520
H982        H  0.22060416  0.94524019  0.33461253     0.28510
H983        H  0.31311772  0.95897817  0.26089718     0.19100
H984        H  0.30024254  0.07197896  0.35543046     0.19110
C985        C  0.46680265  0.10554195  0.24230759    -0.06720
C986        C  0.47267925  0.06601265  0.25654210    -0.17850
C987        C  0.43965028  0.04467437  0.26936459     0.10480
C988        C  0.40278412  0.04707624  0.24736603    -0.06650
C989        C  0.39921489  0.08193673  0.22309580    -0.17880
C990        C  0.42643452  0.11383557  0.22880662     0.10510
S991        S  0.44436402  0.02246944  0.31840029    -0.32850
S992        S  0.40539766  0.16326690  0.22367627    -0.32850
H993        H  0.40932723  0.17090931  0.26553956     0.28520
H994        H  0.40617099  0.03050779  0.33182717     0.28510
H995        H  0.50132176  0.05622759  0.26887358     0.19100
H996        H  0.37433566  0.08771620  0.20316690     0.19110
C997        C  0.34671349  0.00754791  0.20701021    -0.06720
C998        C  0.34514320  0.97060384  0.18563951    -0.17850
C999        C  0.32921588  0.96762390  0.14638197     0.10480
C1000       C  0.31571770  0.00208219  0.12644255    -0.06650
C1001       C  0.30868116  0.03641180  0.14945984    -0.17880
C1002       C  0.32094271  0.03828613  0.19046027     0.10510
S1003       S  0.32530486  0.91876386  0.12389613    -0.32850
S1004       S  0.30093291  0.07985382  0.21866628    -0.32850
H1005       H  0.28280648  0.05459263  0.24556806     0.28520
H1006       H  0.29715450  0.92935467  0.09323473     0.28510
H1007       H  0.35605828  0.94318674  0.19918962     0.19100
H1008       H  0.29397676  0.06193516  0.13546357     0.19110
C1009       C  0.33926447  0.28153266  0.99457944    -0.06720
C1010       C  0.31753178  0.29241886  0.95884464    -0.17850
C1011       C  0.28705477  0.32168899  0.95804692     0.10480
C1012       C  0.28015754  0.34564004  0.99335367    -0.06650
C1013       C  0.29986076  0.33215102  0.02938687    -0.17880
C1014       C  0.32053037  0.29531344  0.03010714     0.10510
S1015       S  0.25917294  0.32731068  0.91053652    -0.32850
S1016       S  0.29756655  0.25925935  0.06255907    -0.32850
H1017       H  0.28485809  0.23411949  0.03035897     0.28520
H1018       H  0.26832461  0.28963881  0.89379303     0.28510
H1019       H  0.32397551  0.27889847  0.93037768     0.19100
H1020       H  0.29214174  0.34508998  0.05825679     0.19110
C1021       C  0.40788336  0.26193037  0.03063722    -0.06720
C1022       C  0.39886656  0.26290508  0.07242514    -0.17850
C1023       C  0.42811031  0.26231169  0.10402168     0.10480
C1024       C  0.46965043  0.26124950  0.09445627    -0.06650
C1025       C  0.47797928  0.25775361  0.05291626    -0.17880
C1026       C  0.44933494  0.26723667  0.02321370     0.10510
S1027       S  0.40817751  0.26345020  0.15469684    -0.32850
S1028       S  0.46684757  0.30210185  0.98618710    -0.32850
H1029       H  0.50597618  0.28655067  0.98386155     0.28520
H1030       H  0.44289877  0.26458656  0.17913008     0.28510
H1031       H  0.36919029  0.26070715  0.08204325     0.19100
H1032       H  0.50780135  0.25340210  0.04272629     0.19110
C1033       C  0.35662437  0.20757930  0.00098021    -0.06720
C1034       C  0.36394237  0.18559730  0.03716031    -0.17850
C1035       C  0.34998926  0.14706270  0.04269872     0.10480
C1036       C  0.32873322  0.12762907  0.01119793    -0.06650
C1037       C  0.31911587  0.14843923  0.97591247    -0.17880
C1038       C  0.33330642  0.18729260  0.96969667     0.10510
S1039       S  0.36292545  0.12306180  0.09020228    -0.32850
S1040       S  0.32755395  0.20432911  0.91813341    -0.32850
H1041       H  0.29239829  0.18298118  0.90807347     0.28520
H1042       H  0.33053154  0.09656592  0.08844159     0.28510
H1043       H  0.38343339  0.19560467  0.06118089     0.19100
H1044       H  0.30437937  0.13232831  0.95111258     0.19110
C1045       C  0.33725418  0.73446596  0.00898106    -0.06720
C1046       C  0.32925282  0.71342119  0.97235182    -0.17850
C1047       C  0.30303707  0.68091955  0.96850298     0.10480
C1048       C  0.27849472  0.67019077  0.00177220    -0.06650
C1049       C  0.28092079  0.69614408  0.03580572    -0.17880
C1050       C  0.30726715  0.72896413  0.03846982     0.10510
S1051       S  0.30057906  0.65921018  0.91794828    -0.32850
S1052       S  0.29853753  0.76303487  0.07950735    -0.32850
H1053       H  0.28134465  0.79206342  0.05367310     0.28520
H1054       H  0.34051812  0.66692324  0.90798024     0.28510
H1055       H  0.34292458  0.72286526  0.94492399     0.19100
H1056       H  0.26076996  0.69161457  0.06046858     0.19110
C1057       C  0.40794331  0.75993698  0.04533667    -0.06720
C1058       C  0.44052864  0.78722521  0.04448313    -0.17850
C1059       C  0.47016882  0.79058860  0.07556903     0.10480
C1060       C  0.47307762  0.76161259  0.10696697    -0.06650
C1061       C  0.43988406  0.73522372  0.10766734    -0.17880
C1062       C  0.40975504  0.73236667  0.07764555     0.10510
S1063       S  0.49351284  0.83876115  0.07733132    -0.32850
S1064       S  0.37476499  0.69346752  0.08567952    -0.32850
H1065       H  0.40225456  0.66596906  0.10309946     0.28520
H1066       H  0.48803523  0.84422275  0.11894205     0.28510
H1067       H  0.43995006  0.81021586  0.02162035     0.19100
H1068       H  0.43650267  0.71578646  0.13322160     0.19110
C1069       C  0.35372101  0.80764547  0.01649878    -0.06720
C1070       C  0.32622625  0.82029049  0.98533937    -0.17850
C1071       C  0.31602789  0.86081378  0.98015709     0.10480
C1072       C  0.33341599  0.88932488  0.00667560    -0.06650
C1073       C  0.35740242  0.87669945  0.03916096    -0.17880
C1074       C  0.36380760  0.83676543  0.04726730     0.10510
S1075       S  0.28484835  0.87439753  0.93690238    -0.32850
S1076       S  0.38161294  0.82924826  0.09901980    -0.32850
H1077       H  0.36708122  0.79107144  0.10498100     0.28520
H1078       H  0.30288363  0.91154737  0.93032756     0.28510
H1079       H  0.31576864  0.79906188  0.96251473     0.19100
H1080       H  0.37051600  0.89872405  0.05971657     0.19110
C1081       C  0.33836979  0.00468974  0.72327501    -0.06720
C1082       C  0.33334428  0.96979976  0.69942740    -0.17850
C1083       C  0.30148267  0.96365183  0.67148848     0.10480
C1084       C  0.27482491  0.99623738  0.66098859    -0.06650
C1085       C  0.28054048  0.03168094  0.68439043    -0.17880
C1086       C  0.31148907  0.03692472  0.71367427     0.10510
S1087       S  0.29868524  0.91117639  0.65692842    -0.32850
S1088       S  0.31379440  0.08659316  0.73611012    -0.32850
H1089       H  0.32872886  0.07602288  0.77461456     0.28520
H1090       H  0.26019545  0.90692559  0.64054935     0.28510
H1091       H  0.35376269  0.94511254  0.70339698     0.19100
H1092       H  0.26109297  0.05708274  0.67865853     0.19110
C1093       C  0.46489877  0.10208913  0.74382421    -0.06720
C1094       C  0.43814417  0.09375572  0.71067149    -0.17850
C1095       C  0.40826571  0.06419344  0.71230103     0.10480
C1096       C  0.39716217  0.04787742  0.75055540    -0.06650
C1097       C  0.41794134  0.06444126  0.78445842    -0.17880
C1098       C  0.45447632  0.08416992  0.78146113     0.10510
S1099       S  0.39148483  0.04538892  0.66333352    -0.32850
S1100       S  0.48316189  0.08469703  0.82915515    -0.32850
H1101       H  0.51371672  0.11075690  0.82147352     0.28520
H1102       H  0.40352236  0.00586718  0.67126160     0.28510
H1103       H  0.44363709  0.10603091  0.68123246     0.19100
H1104       H  0.40835420  0.05957309  0.81469118     0.19110
C1105       C  0.35848182  0.00358513  0.80122222    -0.06720
C1106       C  0.38859959  0.99369699  0.83114022    -0.17850
C1107       C  0.38176942  0.99207929  0.87222893     0.10480
C1108       C  0.34426362  0.00373276  0.88658463    -0.06650
C1109       C  0.31290943  0.01049633  0.85846101    -0.17880
C1110       C  0.31844544  0.00827137  0.81643160     0.10510
S1111       S  0.42243599  0.97328463  0.90412331    -0.32850
S1112       S  0.27137433  0.01123663  0.78810113    -0.32850
H1113       H  0.27575009  0.97635213  0.76499166     0.28520
H1114       H  0.39755868  0.94868800  0.92680055     0.28510
H1115       H  0.41931367  0.98837310  0.82287310     0.19100
H1116       H  0.28324225  0.01695854  0.86948326     0.19110
C1117       C  0.53710695  0.76601063  0.91584330    -0.06720
C1118       C  0.57275238  0.74245376  0.91185917    -0.17850
C1119       C  0.59850233  0.73328499  0.94523901     0.10480
C1120       C  0.59951317  0.75884484  0.97993401    -0.06650
C1121       C  0.56817212  0.78782387  0.98065903    -0.17880
C1122       C  0.53747605  0.79146770  0.95079204     0.10510
S1123       S  0.61890270  0.68317662  0.94395782    -0.32850
S1124       S  0.50354650  0.83299128  0.95744604    -0.32850
H1125       H  0.52767624  0.85652900  0.98377365     0.28520
H1126       H  0.61599322  0.67703018  0.98579071     0.28510
H1127       H  0.57722757  0.72512016  0.88453875     0.19100
H1128       H  0.56822918  0.80953024  0.00466165     0.19110
C1129       C  0.39880282  0.76315107  0.97164198    -0.06720
C1130       C  0.40633397  0.79702571  0.94744715    -0.17850
C1131       C  0.43327502  0.79614147  0.91504777     0.10480
C1132       C  0.45703080  0.76100264  0.90776885    -0.06650
C1133       C  0.43930470  0.72626938  0.92342934    -0.17880
C1134       C  0.41727013  0.72698741  0.95887035     0.10510
S1135       S  0.43374121  0.84041324  0.88390103    -0.32850
S1136       S  0.41443103  0.68095901  0.98738744    -0.32850
H1137       H  0.42925908  0.65472690  0.95778557     0.28520
H1138       H  0.39763074  0.85767540  0.89673001     0.28510
H1139       H  0.39374521  0.82568045  0.95505165     0.19100
H1140       H  0.44399122  0.69750401  0.91005725     0.19110
C1141       C  0.50590528  0.71314725  0.87009815    -0.06720
C1142       C  0.51115757  0.70290971  0.82845419    -0.17850
C1143       C  0.51167406  0.66295952  0.81402974     0.10480
C1144       C  0.51028824  0.63130960  0.84171140    -0.06650
C1145       C  0.51279877  0.64123047  0.88313163    -0.17880
C1146       C  0.51140882  0.68012177  0.89787806     0.10510
S1147       S  0.51550133  0.65457885  0.76038502    -0.32850
S1148       S  0.51576140  0.68131845  0.95342327    -0.32850
H1149       H  0.50445185  0.72013683  0.96362844     0.28520
H1150       H  0.54355375  0.62321463  0.76466555     0.28510
H1151       H  0.51554379  0.72562701  0.80620895     0.19100
H1152       H  0.51492383  0.61788867  0.90563878     0.19110
C1153       C  0.74597026  0.40027644  0.95760354    -0.06720
C1154       C  0.77527528  0.40414540  0.92829232    -0.17850
C1155       C  0.77626586  0.43660233  0.90229366     0.10480
C1156       C  0.74206856  0.46261344  0.89783484    -0.06650
C1157       C  0.70935402  0.45353635  0.92280000    -0.17880
C1158       C  0.70949011  0.42127243  0.94976505     0.10510
S1159       S  0.82570218  0.44169364  0.88284379    -0.32850
S1160       S  0.66664874  0.41560144  0.98128366    -0.32850
H1161       H  0.63935991  0.43763752  0.95688626     0.28520
H1162       H  0.83001702  0.48299844  0.88182166     0.28510
H1163       H  0.80078064  0.38402627  0.92855133     0.19100
H1164       H  0.68325451  0.47275082  0.92181572     0.19110
C1165       C  0.73779050  0.53623735  0.90333139    -0.06720
C1166       C  0.77358267  0.53874817  0.92616185    -0.17850
C1167       C  0.78094326  0.56657191  0.95689181     0.10480
C1168       C  0.75284218  0.59825132  0.96446531    -0.06650
C1169       C  0.71502089  0.59426336  0.94457278    -0.17880
C1170       C  0.70619514  0.56230512  0.91687610     0.10510
S1171       S  0.82882558  0.55970517  0.98281457    -0.32850
S1172       S  0.65362786  0.55151264  0.90841198    -0.32850
H1173       H  0.63840184  0.58911122  0.91985547     0.28520
H1174       H  0.85009821  0.54534417  0.94937648     0.28510
H1175       H  0.79627784  0.51676343  0.92133035     0.19100
H1176       H  0.69123763  0.61435238  0.95326216     0.19110
C1177       C  0.69686198  0.49931444  0.84465255    -0.06720
C1178       C  0.67466337  0.46324602  0.84224741    -0.17850
C1179       C  0.63435291  0.46287824  0.83115921     0.10480
C1180       C  0.61609463  0.49837788  0.81837769    -0.06650
C1181       C  0.63948401  0.53167858  0.81053462    -0.17880
C1182       C  0.68007452  0.53264458  0.82298192     0.10510
S1183       S  0.60697998  0.41703983  0.83724376    -0.32850
S1184       S  0.70592219  0.57931639  0.81695523    -0.32850
H1185       H  0.67904916  0.59606460  0.78807478     0.28520
H1186       H  0.57703760  0.42556850  0.80765431     0.28510
H1187       H  0.68732206  0.43502236  0.85187191     0.19100
H1188       H  0.62486497  0.55848549  0.79913162     0.19110
C1189       C  0.15625678  0.50276555  0.77902022    -0.06720
C1190       C  0.18604406  0.47229443  0.78197540    -0.17850
C1191       C  0.21618104  0.47144183  0.81294827     0.10480
C1192       C  0.21988792  0.50396010  0.84105315    -0.06650
C1193       C  0.18408798  0.52579792  0.84441162    -0.17880
C1194       C  0.15701362  0.53092090  0.81190563     0.10510
S1195       S  0.24759892  0.42718379  0.81624392    -0.32850
S1196       S  0.12716935  0.57525703  0.81770046    -0.32850
H1197       H  0.13479136  0.59218432  0.78029122     0.28520
H1198       H  0.22553871  0.40312308  0.78860323     0.28510
H1199       H  0.18580116  0.44857040  0.75960065     0.19100
H1200       H  0.17583564  0.53918007  0.87270616     0.19110
C1201       C  0.25384798  0.54609646  0.90334593    -0.06720
C1202       C  0.22931388  0.58023779  0.89731672    -0.17850
C1203       C  0.21840344  0.60425544  0.93038471     0.10480
C1204       C  0.24648650  0.60891099  0.96341624    -0.06650
C1205       C  0.27960474  0.58250378  0.96283915    -0.17880
C1206       C  0.28093904  0.54901633  0.93781439     0.10510
S1207       S  0.16610741  0.61734527  0.93161753    -0.32850
S1208       S  0.32341634  0.51623644  0.94761265    -0.32850
H1209       H  0.32628437  0.52310153  0.98977678     0.28520
H1210       H  0.15914018  0.61748059  0.88944171     0.28510
H1211       H  0.21630749  0.58714274  0.86792283     0.19100
H1212       H  0.30432950  0.58686241  0.98367868     0.19110
C1213       C  0.25069064  0.41203541  0.96050452    -0.06720
C1214       C  0.28413424  0.41371825  0.93512768    -0.17850
C1215       C  0.28818317  0.44259969  0.90452336     0.10480
C1216       C  0.25789057  0.47258037  0.89847012    -0.06650
C1217       C  0.22412611  0.46973533  0.92309965    -0.17880
C1218       C  0.22103801  0.44256435  0.95458136     0.10510
S1219       S  0.33399220  0.44057359  0.87701622    -0.32850
S1220       S  0.17705652  0.44781475  0.98522264    -0.32850
H1221       H  0.16690362  0.48742165  0.97503315     0.28520
H1222       H  0.34426135  0.40052849  0.88518876     0.28510
H1223       H  0.30875784  0.39322184  0.94018586     0.19100
H1224       H  0.20008815  0.49119273  0.91903838     0.19110
C1225       C  0.37928762  0.52450220  0.83127413    -0.06720
C1226       C  0.35368989  0.50096995  0.80664621    -0.17850
C1227       C  0.31179614  0.50260078  0.81134384     0.10480
C1228       C  0.29672041  0.52234881  0.84633856    -0.06650
C1229       C  0.32116595  0.55523149  0.85926685    -0.17880
C1230       C  0.36238043  0.55487349  0.85463957     0.10510
S1231       S  0.28302195  0.50155333  0.76420982    -0.32850
S1232       S  0.39152337  0.59392939  0.87921122    -0.32850
H1233       H  0.41996924  0.59647249  0.84875341     0.28520
H1234       H  0.30925230  0.47633645  0.74306894     0.28510
H1235       H  0.36623088  0.48301336  0.78261109     0.19100
H1236       H  0.30967114  0.58057838  0.87563161     0.19110
C1237       C  0.50445253  0.16485495  0.77130071    -0.06720
C1238       C  0.46924111  0.17263742  0.79286686    -0.17850
C1239       C  0.46379285  0.20403901  0.82005030     0.10480
C1240       C  0.49616832  0.23069082  0.83003680    -0.06650
C1241       C  0.53098161  0.22527060  0.80702920    -0.17880
C1242       C  0.53481473  0.19498627  0.77701805     0.10510
S1243       S  0.41277343  0.20665093  0.83764427    -0.32850
S1244       S  0.57667966  0.20278793  0.74478482    -0.32850
H1245       H  0.58470546  0.16341085  0.73580473     0.28520
H1246       H  0.39357604  0.19883620  0.79985541     0.28510
H1247       H  0.44273154  0.15553398  0.78680769     0.19100
H1248       H  0.55533024  0.24625720  0.81166220     0.19110
C1249       C  0.53753564  0.26071825  0.89219664    -0.06720
C1250       C  0.55744001  0.29555645  0.90755995    -0.17850
C1251       C  0.58553538  0.29589056  0.94064255     0.10480
C1252       C  0.60060170  0.25919327  0.95729625    -0.06650
C1253       C  0.59195776  0.22618865  0.93057987    -0.17880
C1254       C  0.55851771  0.22469789  0.90326796     0.10510
S1255       S  0.60505447  0.34528092  0.95073891    -0.32850
S1256       S  0.54687071  0.17535343  0.88293929    -0.32850
H1257       H  0.56505570  0.15303817  0.91449966     0.28520
H1258       H  0.62338674  0.34147375  0.98863266     0.28510
H1259       H  0.55314417  0.32388340  0.89312501     0.19100
H1260       H  0.61040119  0.19972339  0.93121027     0.19110
C1261       C  0.45975957  0.25659950  0.89291478    -0.06720
C1262       C  0.46108655  0.22471985  0.92056629    -0.17850
C1263       C  0.43152279  0.21855488  0.94942083     0.10480
C1264       C  0.40075154  0.24813125  0.95541104    -0.06650
C1265       C  0.39936127  0.27942325  0.92690161    -0.17880
C1266       C  0.42344662  0.28001246  0.89315390     0.10510
S1267       S  0.43944679  0.17601971  0.98230093    -0.32850
S1268       S  0.40197024  0.30855767  0.85117023    -0.32850
H1269       H  0.42039813  0.28684303  0.82025456     0.28520
H1270       H  0.46354805  0.15341432  0.95621814     0.28510
H1271       H  0.48567104  0.20424676  0.92040106     0.19100
H1272       H  0.38193758  0.30611311  0.93136089     0.19110
C1273       C  0.48482219  0.39212526  0.83005396    -0.06720
C1274       C  0.49231477  0.36450293  0.79899873    -0.17850
C1275       C  0.49306526  0.32261889  0.80627575     0.10480
C1276       C  0.49279824  0.30809359  0.84747683    -0.06650
C1277       C  0.48507358  0.33751888  0.87739758    -0.17880
C1278       C  0.47706789  0.37704197  0.86885699     0.10510
S1279       S  0.49002471  0.29108850  0.76158019    -0.32850
S1280       S  0.45449375  0.40541773  0.90932951    -0.32850
H1281       H  0.42903274  0.42764064  0.88312467     0.28520
H1282       H  0.48277541  0.32106503  0.73261879     0.28510
H1283       H  0.49667826  0.37577678  0.76882056     0.19100
H1284       H  0.48311749  0.32897260  0.90872675     0.19110
C1285       C  0.74455073  0.89969284  0.45191133    -0.06720
C1286       C  0.78182523  0.91344597  0.43909595    -0.17850
C1287       C  0.78584400  0.93746375  0.40539466     0.10480
C1288       C  0.75285711  0.96222319  0.39233466    -0.06650
C1289       C  0.71517236  0.94649574  0.40169656    -0.17880
C1290       C  0.71003029  0.91627441  0.43096635     0.10510
S1291       S  0.83124432  0.92628503  0.37825244    -0.32850
S1292       S  0.65888434  0.90316500  0.44150232    -0.32850
H1293       H  0.63902885  0.93158963  0.41692771     0.28520
H1294       H  0.81493375  0.93141063  0.33916975     0.28510
H1295       H  0.80890524  0.90094588  0.45196603     0.19100
H1296       H  0.68935858  0.95713741  0.38464853     0.19110
C1297       C  0.75518386  0.90910861  0.52408909    -0.06720
C1298       C  0.72332547  0.93677870  0.52861963    -0.17850
C1299       C  0.72308605  0.96784096  0.55719545     0.10480
C1300       C  0.75768521  0.97636590  0.58203352    -0.06650
C1301       C  0.79172789  0.95197233  0.57396154    -0.17880
C1302       C  0.79113062  0.91860478  0.54718004     0.10510
S1303       S  0.67632419  0.99466527  0.56047515    -0.32850
S1304       S  0.83903190  0.89283171  0.54590221    -0.32850
H1305       H  0.84021664  0.88369991  0.50483832     0.28520
H1306       H  0.66327333  0.98926110  0.51985362     0.28510
H1307       H  0.69606933  0.93216619  0.51101030     0.19100
H1308       H  0.82063062  0.95927729  0.58711973     0.19110
C1309       C  0.70596375  0.85197656  0.50274775    -0.06720
C1310       C  0.68927031  0.85800758  0.54154891    -0.17850
C1311       C  0.65012336  0.84686479  0.54982658     0.10480
C1312       C  0.62768101  0.82502676  0.52070049    -0.06650
C1313       C  0.64683705  0.81034355  0.48674837    -0.17880
C1314       C  0.68574186  0.82260223  0.47769265     0.10510
S1315       S  0.62995078  0.86318658  0.59739910    -0.32850
S1316       S  0.70522560  0.80181760  0.43207433    -0.32850
H1317       H  0.68141332  0.76724658  0.43033306     0.28520
H1318       H  0.59786992  0.83629437  0.59718621     0.28510
H1319       H  0.70578291  0.87309524  0.56573533     0.19100
H1320       H  0.62975437  0.79239100  0.46498891     0.19110
C1321       C  0.50345428  0.85142928  0.78636318    -0.06720
C1322       C  0.48129776  0.81540658  0.78108872    -0.17850
C1323       C  0.47555607  0.78772955  0.81260739     0.10480
C1324       C  0.49995018  0.78970135  0.84920510    -0.06650
C1325       C  0.52135204  0.82615392  0.85431655    -0.17880
C1326       C  0.51642215  0.85833734  0.82721882     0.10510
S1327       S  0.43497872  0.75285763  0.80246804    -0.32850
S1328       S  0.51861954  0.90745302  0.85002920    -0.32850
H1329       H  0.47830724  0.91639366  0.84026324     0.28520
H1330       H  0.43359161  0.73371540  0.83962436     0.28510
H1331       H  0.46431800  0.81021362  0.75316961     0.19100
H1332       H  0.53729278  0.83282363  0.88230168     0.19110
C1333       C  0.54810370  0.90426756  0.74467761    -0.06720
C1334       C  0.57710834  0.90750156  0.77679405    -0.17850
C1335       C  0.60194335  0.94166426  0.78149261     0.10480
C1336       C  0.61075066  0.96598286  0.74729593    -0.06650
C1337       C  0.59029550  0.95404771  0.71113146    -0.17880
C1338       C  0.55802987  0.92724727  0.70978314     0.10510
S1339       S  0.60830878  0.95766402  0.83343465    -0.32850
S1340       S  0.53226112  0.92567187  0.66129268    -0.32850
H1341       H  0.55790999  0.89554670  0.64686656     0.28520
H1342       H  0.59894118  0.99786193  0.82509182     0.28510
H1343       H  0.57727269  0.88713772  0.80159855     0.19100
H1344       H  0.59932584  0.96587268  0.68256292     0.19110
C1345       C  0.47221787  0.91533501  0.75841750    -0.06720
C1346       C  0.43263409  0.90351442  0.76639542    -0.17850
C1347       C  0.39998415  0.93065432  0.76528476     0.10480
C1348       C  0.40540340  0.97124736  0.75147040    -0.06650
C1349       C  0.44552832  0.98081770  0.74256474    -0.17880
C1350       C  0.47776429  0.95684107  0.75413534     0.10510
S1351       S  0.35404273  0.90918333  0.78277124    -0.32850
S1352       S  0.51882846  0.98327755  0.77839634    -0.32850
H1353       H  0.50665921  0.02241971  0.76989615     0.28520
H1354       H  0.32757474  0.93827978  0.76937431     0.28510
H1355       H  0.42651512  0.87251729  0.77242893     0.19100
H1356       H  0.45409379  0.00928243  0.73146699     0.19110
C1357       C  0.49615689  0.85983836  0.70902544    -0.06720
C1358       C  0.52413242  0.82942498  0.69876211    -0.17850
C1359       C  0.52383387  0.81089940  0.66029097     0.10480
C1360       C  0.49373501  0.82091943  0.63142488    -0.06650
C1361       C  0.46190351  0.84457242  0.64357357    -0.17880
C1362       C  0.46417866  0.86720972  0.67928906     0.10510
S1363       S  0.56370104  0.77651844  0.64895739    -0.32850
S1364       S  0.43155939  0.91045946  0.67636843    -0.32850
H1365       H  0.43480563  0.91751639  0.63455744     0.28520
H1366       H  0.54189608  0.75532531  0.61880339     0.28510
H1367       H  0.54832743  0.82207594  0.72006845     0.19100
H1368       H  0.43838333  0.85122651  0.62115439     0.19110
C1369       C  0.51125573  0.85075781  0.23319399    -0.06720
C1370       C  0.47503104  0.83786572  0.21462346    -0.17850
C1371       C  0.47275474  0.80454925  0.18863342     0.10480
C1372       C  0.50837008  0.78563756  0.17443795    -0.06650
C1373       C  0.54402317  0.79561068  0.19626465    -0.17880
C1374       C  0.54545675  0.82517578  0.22700784     0.10510
S1375       S  0.42304449  0.78482469  0.18245369    -0.32850
S1376       S  0.59358934  0.82924993  0.25354007    -0.32850
H1377       H  0.58077495  0.84584130  0.28985802     0.28520
H1378       H  0.43435103  0.74653569  0.19566742     0.28510
H1379       H  0.44708726  0.85206569  0.22231807     0.19100
H1380       H  0.57124981  0.77911262  0.19022787     0.19110
C1381       C  0.55147999  0.91376118  0.25344751    -0.06720
C1382       C  0.57387072  0.92954153  0.28680615    -0.17850
C1383       C  0.59720483  0.96403458  0.28389882     0.10480
C1384       C  0.60845397  0.97720832  0.24476987    -0.06650
C1385       C  0.60232867  0.94723861  0.21435858    -0.17880
C1386       C  0.57202852  0.91864257  0.21617101     0.10510
S1387       S  0.61736888  0.98350378  0.33145336    -0.32850
S1388       S  0.56528684  0.89093241  0.16891631    -0.32850
H1389       H  0.52368299  0.88651265  0.16852584     0.28520
H1390       H  0.59315440  0.96269112  0.35817597     0.28510
H1391       H  0.57354503  0.91546734  0.31583066     0.19100
H1392       H  0.62068101  0.94555933  0.18803690     0.19110
C1393       C  0.47165635  0.91677689  0.25177248    -0.06720
C1394       C  0.43793049  0.91243879  0.27704759    -0.17850
C1395       C  0.40586073  0.94040599  0.27921746     0.10480
C1396       C  0.40201158  0.97213511  0.25028399    -0.06650
C1397       C  0.43085877  0.97075468  0.21973842    -0.17880
C1398       C  0.46564594  0.94671478  0.22110146     0.10510
S1399       S  0.37376767  0.93182159  0.32119997    -0.32850
S1400       S  0.50083144  0.96129866  0.18406826    -0.32850
H1401       H  0.47257968  0.96815413  0.15229939     0.28520
H1402       H  0.37871539  0.96967060  0.33886701     0.28510
H1403       H  0.43725866  0.88776075  0.29792307     0.19100
H1404       H  0.42816067  0.99284641  0.19597227     0.19110
C1405       C  0.51000090  0.87617930  0.30711452    -0.06720
C1406       C  0.50989451  0.83502156  0.31837638    -0.17850
C1407       C  0.51247347  0.82243968  0.35906665     0.10480
C1408       C  0.51196796  0.85094049  0.39082018    -0.06650
C1409       C  0.50810787  0.89104128  0.38036481    -0.17880
C1410       C  0.50720653  0.90406980  0.34046986     0.10510
S1411       S  0.51743360  0.76964033  0.36801241    -0.32850
S1412       S  0.50657530  0.95783221  0.33851283    -0.32850
H1413       H  0.50681195  0.96524717  0.29704983     0.28520
H1414       H  0.55009180  0.77408737  0.39561625     0.28510
H1415       H  0.50936711  0.81150095  0.29584875     0.19100
H1416       H  0.50627140  0.91349842  0.40413962     0.19110
C1417       C  0.16625123  0.77994410  0.49930944    -0.06720
C1418       C  0.17401517  0.79865740  0.46205007    -0.17850
C1419       C  0.20158150  0.82960129  0.45714458     0.10480
C1420       C  0.22746896  0.84185309  0.49033668    -0.06650
C1421       C  0.22274279  0.82065060  0.52693143    -0.17880
C1422       C  0.19296000  0.79128387  0.53220153     0.10510
S1423       S  0.20039790  0.85067565  0.40673003    -0.32850
S1424       S  0.19122850  0.76936345  0.58193219    -0.32850
H1425       H  0.21197723  0.79969485  0.60339875     0.28520
H1426       H  0.19142456  0.81523110  0.38514101     0.28510
H1427       H  0.15840423  0.78885953  0.43486895     0.19100
H1428       H  0.24311719  0.82735395  0.55214531     0.19110
C1429       C  0.25542013  0.90238832  0.53178227    -0.06720
C1430       C  0.21720481  0.90878203  0.54866821    -0.17850
C1431       C  0.21010175  0.93501579  0.58157235     0.10480
C1432       C  0.24116026  0.96205610  0.59564892    -0.06650
C1433       C  0.27863279  0.95642173  0.57721898    -0.17880
C1434       C  0.28713101  0.92284451  0.55314119     0.10510
S1435       S  0.16183594  0.92628412  0.60334482    -0.32850
S1436       S  0.33429826  0.89954675  0.56826182    -0.32850
H1437       H  0.31813142  0.86084083  0.56928652     0.28520
H1438       H  0.14804676  0.96519862  0.60797184     0.28510
H1439       H  0.19164774  0.89265676  0.53616222     0.19100
H1440       H  0.30389938  0.97412183  0.58796966     0.19110
C1441       C  0.25082300  0.90603773  0.45346562    -0.06720
C1442       C  0.22130302  0.93533204  0.45771565    -0.17850
C1443       C  0.22427051  0.97236846  0.43926984     0.10480
C1444       C  0.24709730  0.97738866  0.40342434    -0.06650
C1445       C  0.27407780  0.94548535  0.39598343    -0.17880
C1446       C  0.27417636  0.90953447  0.41773768     0.10510
S1447       S  0.21253147  0.01186392  0.47431102    -0.32850
S1448       S  0.30232361  0.86905951  0.39481366    -0.32850
H1449       H  0.28241248  0.83771211  0.41344785     0.28520
H1450       H  0.23248828  0.99394052  0.50772147     0.28510
H1451       H  0.19939374  0.93272368  0.48071355     0.19100
H1452       H  0.29612598  0.94751136  0.37309860     0.19110
C1453       C  0.38897241  0.84714664  0.49167247    -0.06720
C1454       C  0.36164857  0.81564609  0.49400070    -0.17850
C1455       C  0.31982695  0.82186766  0.48943838     0.10480
C1456       C  0.30431847  0.86199899  0.48734322    -0.06650
C1457       C  0.33301040  0.89239073  0.48102059    -0.17880
C1458       C  0.37414114  0.88532450  0.48101234     0.10510
S1459       S  0.28960614  0.77743997  0.48324186    -0.32850
S1460       S  0.40644900  0.92643377  0.46819553    -0.32850
H1461       H  0.37632234  0.95293764  0.45410810     0.28520
H1462       H  0.32086697  0.74933552  0.47976379     0.28510
H1463       H  0.37325469  0.78581917  0.49930759     0.19100
H1464       H  0.32311669  0.92312909  0.47837389     0.19110
C1465       C  0.83613294  0.77442963  0.50156722    -0.06720
C1466       C  0.82093965  0.78653240  0.46334717    -0.17850
C1467       C  0.79597841  0.81976492  0.45701996     0.10480
C1468       C  0.77791214  0.83914401  0.49133045    -0.06650
C1469       C  0.78605782  0.82099508  0.52919917    -0.17880
C1470       C  0.81529351  0.79098669  0.53566137     0.10510
S1471       S  0.79250655  0.83163158  0.40308578    -0.32850
S1472       S  0.82139846  0.77890856  0.58929871    -0.32850
H1473       H  0.84439878  0.74407947  0.59038280     0.28520
H1474       H  0.75502096  0.84971398  0.39817225     0.28510
H1475       H  0.83148214  0.77144176  0.43675436     0.19100
H1476       H  0.77077245  0.83252603  0.55540991     0.19110
C1477       C  0.90258184  0.74592022  0.46842343    -0.06720
C1478       C  0.90686146  0.78322001  0.44994657    -0.17850
C1479       C  0.92797993  0.78781660  0.41436375     0.10480
C1480       C  0.95852833  0.75906588  0.40423222    -0.06650
C1481       C  0.95528862  0.72193868  0.42309652    -0.17880
C1482       C  0.92954701  0.71507688  0.45521192     0.10510
S1483       S  0.90892971  0.82731464  0.38121018    -0.32850
S1484       S  0.93231864  0.66561535  0.47645177    -0.32850
H1485       H  0.94896351  0.64548336  0.44326560     0.28520
H1486       H  0.88373590  0.84698453  0.40848821     0.28510
H1487       H  0.89133807  0.80899082  0.46163164     0.19100
H1488       H  0.97234725  0.69723169  0.41194676     0.19110
C1489       C  0.89725029  0.74265326  0.54099938    -0.06720
C1490       C  0.90838407  0.78108666  0.55482405    -0.17850
C1491       C  0.93279269  0.78609016  0.58932661     0.10480
C1492       C  0.96346879  0.75703960  0.59808211    -0.06650
C1493       C  0.95265421  0.71786602  0.58496994    -0.17880
C1494       C  0.91741088  0.71020921  0.56105624     0.10510
S1495       S  0.91386172  0.82291665  0.62467554    -0.32850
S1496       S  0.89610930  0.66079675  0.56384530    -0.32850
H1497       H  0.93006535  0.64126480  0.58057674     0.28520
H1498       H  0.92435747  0.80121178  0.65962272     0.28510
H1499       H  0.89341868  0.80736251  0.54279325     0.19100
H1500       H  0.96851419  0.69264917  0.59782310     0.19110
C1501       C  0.84431958  0.70216010  0.49359808    -0.06720
C1502       C  0.81667483  0.69073622  0.52299895    -0.17850
C1503       C  0.79676589  0.65425192  0.52102405     0.10480
C1504       C  0.80614397  0.62740168  0.48984579    -0.06650
C1505       C  0.82585569  0.64157955  0.45625235    -0.17880
C1506       C  0.84129656  0.68026144  0.45594800     0.10510
S1507       S  0.75914446  0.64541346  0.55807504    -0.32850
S1508       S  0.85224975  0.70017524  0.40649599    -0.32850
H1509       H  0.83983731  0.66714181  0.38275597     0.28520
H1510       H  0.75703523  0.60381275  0.55500943     0.28510
H1511       H  0.81059380  0.70955414  0.54832253     0.19100
H1512       H  0.82980079  0.62180534  0.43046748     0.19110
C1513       C  0.83546474  0.51487733  0.78124538    -0.06720
C1514       C  0.81554192  0.47838681  0.78690232    -0.17850
C1515       C  0.78102168  0.47459581  0.81010809     0.10480
C1516       C  0.77058747  0.50555847  0.83791367    -0.06650
C1517       C  0.79006797  0.54246252  0.83213640    -0.17880
C1518       C  0.81692429  0.54852887  0.80035638     0.10510
S1519       S  0.75462962  0.42765890  0.80610398    -0.32850
S1520       S  0.82361107  0.59951415  0.78394567    -0.32850
H1521       H  0.79360955  0.61744130  0.80717000     0.28520
H1522       H  0.77138202  0.41441254  0.76968191     0.28510
H1523       H  0.82729927  0.45171007  0.77385408     0.19100
H1524       H  0.78159232  0.56806928  0.84999376     0.19110
C1525       C  0.90105923  0.48136470  0.74794253    -0.06720
C1526       C  0.92317501  0.47485918  0.71242359    -0.17850
C1527       C  0.95231687  0.44452302  0.70785056     0.10480
C1528       C  0.96121202  0.41709847  0.74049392    -0.06650
C1529       C  0.93404532  0.42107014  0.77297231    -0.17880
C1530       C  0.91048013  0.45494549  0.77979726     0.10510
S1531       S  0.96954126  0.44059381  0.65649788    -0.32850
S1532       S  0.89984372  0.46538592  0.83155731    -0.32850
H1533       H  0.92883566  0.43993000  0.84966161     0.28520
H1534       H  0.93304263  0.45097707  0.63664895     0.28510
H1535       H  0.91639285  0.49275337  0.68624532     0.19100
H1536       H  0.93191511  0.39858601  0.79592677     0.19110
C1537       C  0.89759637  0.55462382  0.75117472    -0.06720
C1538       C  0.91517180  0.56738442  0.71493204    -0.17850
C1539       C  0.94708397  0.59401020  0.71359685     0.10480
C1540       C  0.96192513  0.61305922  0.74961569    -0.06650
C1541       C  0.94258103  0.60338781  0.78573396    -0.17880
C1542       C  0.91391425  0.57273724  0.78768270     0.10510
S1543       S  0.96802702  0.60199417  0.66441756    -0.32610
S1544       S  0.90035367  0.55926521  0.83836469    -0.32850
H1545       H  0.93577528  0.57186460  0.85872046     0.28520
H1546       H  0.93393496  0.59155815  0.64064206     0.28510
H1547       H  0.90574769  0.55469979  0.68629115     0.19100
H1548       H  0.95223877  0.61727166  0.81390321     0.19110
C1549       C  0.84370428  0.51478951  0.70704465    -0.06720
C1550       C  0.83143643  0.55116271  0.68888127    -0.17850
C1551       C  0.82178116  0.55353621  0.64743582     0.10480
C1552       C  0.81596162  0.51823760  0.62455484    -0.06650
C1553       C  0.81959181  0.48165247  0.64404342    -0.17880
C1554       C  0.83362442  0.47889304  0.68441837     0.10510
S1555       S  0.82161410  0.60267782  0.62578693    -0.32850
S1556       S  0.84044192  0.42834595  0.70261908    -0.32850
H1557       H  0.81382046  0.40930571  0.67492401     0.28520
H1558       H  0.83180815  0.59147876  0.58634570     0.28510
H1559       H  0.83551634  0.57897563  0.70516836     0.19100
H1560       H  0.81487092  0.45466976  0.62617556     0.19110
C1561       C  0.76442584  0.51285839  0.16465868    -0.06720
C1562       C  0.76823083  0.48012207  0.19118097    -0.17850
C1563       C  0.79899783  0.47723885  0.22162956     0.10480
C1564       C  0.82844976  0.50815875  0.22643848    -0.06650
C1565       C  0.81940419  0.54348941  0.20492670    -0.17880
C1566       C  0.78694304  0.54750874  0.17752705     0.10510
S1567       S  0.80053944  0.43224232  0.25158855    -0.32850
S1568       S  0.77554684  0.59975938  0.16675614    -0.32850
H1569       H  0.73411378  0.59748053  0.16061748     0.28520
H1570       H  0.77054692  0.41082969  0.23010368     0.28510
H1571       H  0.74710610  0.45591921  0.18727726     0.19100
H1572       H  0.83600687  0.57039977  0.21148114     0.19110
C1573       C  0.89699548  0.47220119  0.25428954    -0.06720
C1574       C  0.92772007  0.47061530  0.28493272    -0.17850
C1575       C  0.95837522  0.44119992  0.28683349     0.10480
C1576       C  0.96281101  0.41285107  0.25485145    -0.06650
C1577       C  0.92842286  0.41081146  0.22805883    -0.17880
C1578       C  0.89896000  0.44122799  0.22429615     0.10510
S1579       S  0.98456958  0.43639586  0.33471079    -0.32850
S1580       S  0.86815781  0.43918962  0.17827722    -0.32850
H1581       H  0.89432002  0.41582772  0.15500061     0.28520
H1582       H  0.95983167  0.46110466  0.35813098     0.28510
H1583       H  0.92649876  0.49222393  0.30938225     0.19100
H1584       H  0.92494282  0.38553902  0.20772676     0.19110
C1585       C  0.89243247  0.54639849  0.25589213    -0.06720
C1586       C  0.90247163  0.57002057  0.29064866    -0.17850
C1587       C  0.93038855  0.60174301  0.29064796     0.10480
C1588       C  0.95213659  0.60997690  0.25476588    -0.06650
C1589       C  0.93653096  0.59114448  0.21925364    -0.17880
C1590       C  0.91135879  0.55771421  0.21963838     0.10510
S1591       S  0.94067046  0.62541789  0.33955121    -0.32850
S1592       S  0.90528563  0.52984642  0.17262339    -0.32850
H1593       H  0.93241575  0.55088204  0.14911479     0.28520
H1594       H  0.90352346  0.61707288  0.35667587     0.28510
H1595       H  0.89155175  0.56174769  0.31973659     0.19100
H1596       H  0.94491755  0.60118563  0.19004135     0.19110
C1597       C  0.84416035  0.50559631  0.30092840    -0.06720
C1598       C  0.84684183  0.47022135  0.32419476    -0.17850
C1599       C  0.83016916  0.46730763  0.36227501     0.10480
C1600       C  0.81430266  0.50111468  0.38119378    -0.06650
C1601       C  0.80803297  0.53550594  0.35815210    -0.17880
C1602       C  0.82013645  0.53732053  0.31755101     0.10510
S1603       S  0.82698139  0.41875716  0.38406571    -0.32850
S1604       S  0.80736350  0.58235917  0.29016057    -0.32850
H1605       H  0.77741441  0.59613368  0.31608438     0.28520
H1606       H  0.79549502  0.42771578  0.41013196     0.28510
H1607       H  0.86032157  0.44331196  0.31228434     0.19100
H1608       H  0.79489921  0.56151740  0.37248078     0.19110
C1609       C  0.77070395  0.17756152  0.49129715    -0.06720
C1610       C  0.77298769  0.20557221  0.46003419    -0.17850
C1611       C  0.80404141  0.23403013  0.45848248     0.10480
C1612       C  0.83486598  0.23579336  0.48971628    -0.06650
C1613       C  0.82813350  0.21147326  0.52362234    -0.17880
C1614       C  0.79481335  0.18689095  0.52655206     0.10510
S1615       S  0.80184059  0.26707028  0.41586776    -0.32850
S1616       S  0.78279081  0.17772311  0.57870530    -0.32850
H1617       H  0.74134949  0.17519888  0.57629074     0.28520
H1618       H  0.76153495  0.26078482  0.40395769     0.28510
H1619       H  0.75143707  0.20371575  0.43519877     0.19100
H1620       H  0.84636591  0.21392851  0.55096488     0.19110
C1621       C  0.89664145  0.25997246  0.53295544    -0.06720
C1622       C  0.92451047  0.22784867  0.53154111    -0.17850
C1623       C  0.95598348  0.22257027  0.56015321     0.10480
C1624       C  0.95953250  0.24778739  0.59529905    -0.06650
C1625       C  0.92504033  0.27107657  0.60239797    -0.17880
C1626       C  0.89508221  0.27874844  0.57229891     0.10510
S1627       S  0.99243117  0.18541376  0.54652789    -0.32850
S1628       S  0.85507750  0.30893132  0.59080215    -0.32850
H1629       H  0.82834127  0.27658226  0.59001080     0.28520
H1630       H  0.99715168  0.20212029  0.50813698     0.28510
H1631       H  0.92340760  0.20729374  0.50608645     0.19100
H1632       H  0.92092354  0.28418692  0.63190526     0.19110
C1633       C  0.90222775  0.26235744  0.45777517    -0.06720
C1634       C  0.90171473  0.22872330  0.43140996    -0.17850
C1635       C  0.93278657  0.21978927  0.40398061     0.10480
C1636       C  0.96409745  0.24821703  0.39716612    -0.06650
C1637       C  0.96343276  0.28217664  0.42310355    -0.17880
C1638       C  0.93663966  0.28754558  0.45504856     0.10510
S1639       S  0.93051062  0.17055450  0.38152297    -0.32850
S1640       S  0.94709739  0.33121351  0.48701217    -0.32850
H1641       H  0.91953998  0.32880673  0.51755901     0.28520
H1642       H  0.90983930  0.15203853  0.41276472     0.28510
H1643       H  0.87796459  0.20727510  0.43391423     0.19100
H1644       H  0.98534635  0.30528712  0.41875748     0.19110
C1645       C  0.82462771  0.39073746  0.50327071    -0.06720
C1646       C  0.85313771  0.38127409  0.47507890    -0.17850
C1647       C  0.86020723  0.34231729  0.46324089     0.10480
C1648       C  0.84874968  0.31022360  0.48886693    -0.06650
C1649       C  0.81470728  0.31942417  0.51227039    -0.17880
C1650       C  0.80269778  0.35939169  0.52005508     0.10510
S1651       S  0.87837966  0.34041732  0.41261648    -0.32850
S1652       S  0.76232669  0.36817436  0.55409617    -0.32850
H1653       H  0.77719097  0.40446967  0.56995652     0.28520
H1654       H  0.86749033  0.30167048  0.40318039     0.28510
H1655       H  0.86755613  0.40510726  0.45895701     0.19100
H1656       H  0.79911094  0.29575375  0.52723711     0.19110
loop_ 
_geom_bond_atom_site_label_1 
_geom_bond_atom_site_label_2 
_geom_bond_distance 
_geom_bond_site_symmetry_2 
_ccdc_geom_bond_type 
C1         C1612   1.591       .  S
C1         C1621   1.614       .  S
C1         C1633   1.592       .  S
C1         C1648   1.590       .  S
C2         C1564   1.590       .  S
C2         C1573   1.599       .  S
C2         C1585   1.597       .  S
C2         C1597   1.584       .  S
C3         C1513   1.586       .  S
C3         C1525   1.583       .  S
C3         C1537   1.594       .  S
C3         C1549   1.586       .  S
C4         C1465   1.593       .  S
C4         C1477   1.582       .  S
C4         C1489   1.566       .  S
C4         C1501   1.563       .  S
O5           V13   1.901       .  S
O5           C15   1.263       .  A
O6           V13   1.913       .  S
O6           C16   1.265       .  A
O7           V13   1.917       .  S
O7           C17   1.268       .  A
O8           V13   1.920       .  S
O8           C18   1.268       .  A
O9           V14   1.895       .  S
O9           C18   1.263       .  A
O10          V14   1.889       .  S
O10          C17   1.260       .  A
O11          V14   1.879       .  S
O11          C16   1.263       .  A
O12          V14   1.875       .  S
O12          C15   1.260       .  A
V13          V14   2.087       .  T
C15        C1504   1.456       .  S
C16        C1645   1.472       .  S
C17        C1552   1.473       .  S
C18        C1600   1.480       .  S
C19        C1420   1.589       .  S
C19        C1429   1.620       .  S
C19        C1441   1.585       .  S
C19        C1456   1.577       .  S
C20        C1369   1.575       .  S
C20        C1381   1.595       .  S
C20        C1393   1.625       .  S
C20        C1405   1.602       .  S
C21        C1321   1.607       .  S
C21        C1333   1.613       .  S
C21        C1345   1.566       .  S
C21        C1357   1.583       .  S
C22        C1285   1.572       .  S
C22        C1297   1.601       .  S
C22        C1309   1.590       .  S
C22        C1468   1.576       .  S
O23          V31   1.918       .  S
O23          C33   1.269       .  A
O24          V31   1.915       .  S
O24          C34   1.269       .  A
O25          V31   1.923       .  S
O25          C35   1.267       .  A
O26          V31   1.916       .  S
O26          C36   1.266       .  A
O27          V32   1.885       .  S
O27          C36   1.265       .  A
O28          V32   1.880       .  S
O28          C35   1.262       .  A
O29          V32   1.878       .  S
O29          C34   1.258       .  A
O30          V32   1.879       .  S
O30          C33   1.259       .  A
V31          V32   2.084       .  T
C33        C1453   1.488       .  S
C34        C1312   1.470       .  S
C35        C1360   1.478       .  S
C36        C1408   1.496       .  S
C37        C1240   1.577       .  S
C37        C1249   1.628       .  S
C37        C1261   1.587       .  S
C37        C1276   1.595       .  S
C38        C1192   1.594       .  S
C38        C1201   1.592       .  S
C38        C1216   1.579       .  S
C38        C1228   1.604       .  S
C39        C1156   1.587       .  S
C39        C1165   1.594       .  S
C39        C1177   1.564       .  S
C39        C1516   1.583       .  S
C40        C1117   1.610       .  S
C40        C1132   1.618       .  S
C40        C1141   1.602       .  S
C40        C1324   1.596       .  S
O41          V49   1.884       .  S
O41          C51   1.257       .  A
O42          V49   1.886       .  S
O42          C52   1.257       .  A
O43          V49   1.952       .  S
O43          C53   1.278       .  A
O44          V49   1.955       .  S
O44          C54   1.278       .  A
O45          V50   1.844       .  S
O45          C54   1.253       .  A
O46          V50   1.841       .  S
O46          C53   1.249       .  A
O47          V50   1.889       .  S
O47          C52   1.264       .  A
O48          V50   1.901       .  S
O48          C51   1.267       .  A
V49          V50   2.083       .  T
C51        C1225   1.463       .  S
C52        C1180   1.451       .  S
C53        C1273   1.492       .  S
C54        C1144   1.504       .  S
C55        C1081   1.573       .  S
C55        C1096   1.598       .  S
C55        C1105   1.593       .  S
C55        C1348   1.604   1_545  S
C56        C1045   1.602       .  S
C56        C1057   1.581       .  S
C56        C1069   1.564       .  S
C56        C1129   1.590   1_554  S
C57        C1009   1.599       .  S
C57        C1021   1.608   1_556  S
C57        C1033   1.580   1_556  S
C57        C1264   1.584       .  S
C58         C973   1.575       .  S
C58         C988   1.592       .  S
C58         C997   1.580       .  S
C58        C1396   1.618   1_545  S
O59          V67   1.913       .  S
O59          C69   1.266       .  A
O60          V67   1.902   1_556  S
O60          C70   1.265       .  A
O61          V67   1.911   1_565  S
O61          C71   1.266       .  A
O62          V67   1.912       .  S
O62          C72   1.267       .  A
O63          V68   1.876       .  S
O63          C72   1.259       .  A
O64          V68   1.871   1_565  S
O64          C71   1.259       .  A
O65          V68   1.882   1_556  S
O65          C70   1.261       .  A
O66          V68   1.886       .  S
O66          C69   1.262       .  A
V67          V68   2.084       .  T
C69        C1000   1.467       .  S
C70        C1108   1.477       .  S
C71        C1072   1.462       .  S
C72        C1036   1.467       .  S
C73         C940   1.561       .  S
C73         C952   1.622       .  S
C73         C964   1.615       .  S
C73        C1540   1.571   1_455  S
C74         C901   1.611       .  S
C74         C913   1.597   1_556  S
C74         C925   1.570       .  S
C74        C1168   1.573       .  S
C75         C877   1.591       .  S
C75         C892   1.581       .  S
C75        C1048   1.579       .  S
C75        C1204   1.570   1_554  S
C76         C841   1.587       .  S
C76         C856   1.573   1_655  S
C76         C865   1.604   1_655  S
C76        C1588   1.602       .  S
O77          V85   1.946       .  S
O77          C87   1.274       .  A
O78          V85   1.940   1_556  S
O78          C88   1.277       .  A
O79          V85   1.903   1_655  S
O79          C89   1.262   1_554  A
O80          V85   1.900       .  S
O80          C90   1.261       .  A
O81          V86   1.899       .  S
O81          C90   1.266       .  A
O82          V86   1.890   1_656  S
O82          C89   1.264       .  A
O83          V86   1.867   1_556  S
O83          C88   1.254       .  A
O84          V86   1.857   1_655  S
O84          C87   1.258   1_655  A
V85          V86   2.080       .  T
C87         C868   1.500       .  S
C88         C961   1.493       .  S
C89         C928   1.466       .  S
C90         C889   1.469       .  S
C91         C817   1.587       .  S
C91         C829   1.580       .  S
C91         C904   1.595       .  S
C91        C1120   1.601   1_554  S
C92         C781   1.582       .  S
C92         C793   1.633       .  S
C92         C805   1.577       .  S
C92        C1336   1.604   1_545  S
C93         C748   1.602   1_556  S
C93         C757   1.575   1_556  S
C93         C769   1.575       .  S
C93        C1252   1.632       .  S
C94         C712   1.553       .  S
C94         C721   1.597       .  S
C94         C736   1.567       .  S
C94        C1384   1.604   1_545  S
O95         V103   1.893   1_554  S
O95         C105   1.264       .  A
O96         V103   1.900       .  S
O96         C106   1.262       .  A
O97         V103   1.920       .  S
O97         C107   1.268       .  A
O98         V103   1.912   1_565  S
O98         C108   1.267       .  A
O99         V104   1.875   1_565  S
O99         C108   1.259       .  A
O100        V104   1.881       .  S
O100        C107   1.263       .  A
O101        V104   1.877       .  S
O101        C106   1.260       .  A
O102        V104   1.878   1_564  S
O102        C105   1.258   1_565  A
V103        V104   2.085       .  T
C105        C733   1.476       .  S
C106        C808   1.453       .  S
C107        C772   1.496       .  S
C108        C832   1.467       .  S
C109        C676   1.579       .  S
C109        C685   1.596       .  S
C109        C700   1.589       .  S
C109        C880   1.581       .  S
C110        C649   1.597       .  S
C110        C661   1.597       .  S
C110        C760   1.582       .  S
C110       C1024   1.561       .  S
C111        C637   1.580       .  S
C111        C820   1.611       .  S
C111       C1060   1.608       .  S
C111       C1372   1.578       .  S
C112        C613   1.587       .  S
C112        C625   1.581       .  S
C112        C916   1.582       .  S
C112       C1561   1.594       .  S
O113        V121   1.919       .  S
O113        C123   1.268       .  A
O114        V121   1.914       .  S
O114        C124   1.267       .  A
O115        V121   1.915       .  S
O115        C125   1.269       .  A
O116        V121   1.924       .  S
O116        C126   1.268       .  A
O117        V122   1.858       .  S
O117        C126   1.259       .  A
O118        V122   1.867       .  S
O118        C125   1.256       .  A
O119        V122   1.886       .  S
O119        C124   1.262       .  A
O120        V122   1.890       .  S
O120        C123   1.261       .  A
V121        V122   2.078       .  T
C123        C697   1.474       .  S
C124        C628   1.471       .  S
C125        C640   1.480       .  S
C126        C664   1.470       .  S
C127        C601   1.566   1_556  S
C127        C616   1.611   1_556  S
C127        C745   1.584   1_556  S
C127       C1153   1.582       .  S
C128        C565   1.554       .  S
C128        C577   1.597   1_655  S
C128        C589   1.578       .  S
C128       C1528   1.622       .  S
C129        C553   1.582       .  S
C129        C688   1.588   1_556  S
C129       C1012   1.579       .  S
C129       C1213   1.585       .  S
C130        C517   1.567       .  S
C130        C532   1.618       .  S
C130        C541   1.595   1_455  S
C130       C1576   1.628   1_455  S
O131        V139   1.930   1_554  S
O131        C141   1.273       .  A
O132        V139   1.933       .  S
O132        C142   1.273       .  A
O133        V139   1.905       .  S
O133        C143   1.265       .  A
O134        V139   1.896   1_655  S
O134        C144   1.264   1_556  A
O135        V140   1.883   1_654  S
O135        C144   1.262       .  A
O136        V140   1.887       .  S
O136        C143   1.263       .  A
O137        V140   1.854   1_655  S
O137        C142   1.253   1_655  A
O138        V140   1.862   1_554  S
O138        C141   1.255       .  A
V139        V140   2.067       .  T
C141        C544   1.484       .  S
C142        C592   1.481       .  S
C143        C556   1.465       .  S
C144        C604   1.477       .  S
C145        C493   1.574       .  S
C145        C505   1.590       .  S
C145        C784   1.576       .  S
C145       C1300   1.605   1_545  S
C146        C469   1.588       .  S
C146        C481   1.532       .  S
C146        C937   1.584       .  S
C146       C1492   1.613   1_455  S
C147        C445   1.588       .  S
C147        C457   1.548       .  S
C147        C568   1.573   1_455  S
C147       C1624   1.608   1_455  S
C148        C421   1.603   1_565  S
C148        C433   1.575   1_565  S
C148       C1084   1.591       .  S
C148       C1432   1.583       .  S
O149        V157   1.832   1_565  S
O149        C159   1.253       .  A
O150        V157   1.854       .  S
O150        C160   1.251       .  A
O151        V157   1.893       .  S
O151        C161   1.263       .  A
O152        V157   1.900   1_655  S
O152        C162   1.266       .  A
O153        V158   1.902   1_655  S
O153        C162   1.263       .  A
O154        V158   1.908       .  S
O154        C161   1.263       .  A
O155        V158   1.925       .  S
O155        C160   1.273       .  A
O156        V158   1.924   1_565  S
O156        C159   1.269       .  A
V157        V158   2.081       .  T
C159        C484   1.472       .  S
C160        C460   1.462       .  S
C161        C436   1.468       .  S
C162        C508   1.470       .  S
C163        C385   1.605       .  S
C163        C397   1.583       .  S
C163        C412   1.609       .  S
C163        C448   1.595       .  S
C164        C373   1.585       .  S
C164        C529   1.586       .  S
C164        C673   1.578       .  S
C164        C853   1.598       .  S
C165        C364   1.584       .  S
C165        C580   1.578       .  S
C165        C949   1.590       .  S
C165       C1189   1.582       .  S
C166        C337   1.584       .  S
C166        C349   1.559       .  S
C166        C472   1.585       .  S
C166       C1417   1.610       .  S
O167        V175   1.871       .  S
O167        C177   1.260       .  A
O168        V175   1.872       .  S
O168        C178   1.260       .  A
O169        V175   1.875       .  S
O169        C179   1.258       .  A
O170        V175   1.863       .  S
O170        C180   1.254       .  A
O171        V176   1.925       .  S
O171        C180   1.272       .  A
O172        V176   1.926       .  S
O172        C179   1.270       .  A
O173        V176   1.920       .  S
O173        C178   1.267       .  A
O174        V176   1.912       .  S
O174        C177   1.265       .  A
V175        V176   2.076       .  T
C177        C352   1.461       .  S
C178        C409   1.484       .  S
C179        C361   1.469       .  S
C180        C376   1.485       .  S
C181        C313   1.594       .  S
C181        C325   1.576       .  S
C181        C388   1.608       .  S
C181        C424   1.592       .  S
C182        C304   1.582       .  S
C182        C652   1.581       .  S
C182        C724   1.593       .  S
C182        C985   1.593       .  S
C183        C289   1.577       .  S
C183        C796   1.602       .  S
C183       C1093   1.590       .  S
C183       C1237   1.604       .  S
C184        C265   1.576       .  S
C184        C277   1.586       .  S
C184        C496   1.572       .  S
C184       C1609   1.575       .  S
O185        V193   1.896       .  S
O185        C195   1.265       .  A
O186        V193   1.894       .  S
O186        C196   1.263       .  A
O187        V193   1.858       .  S
O187        C197   1.254       .  A
O188        V193   1.850       .  S
O188        C198   1.253       .  A
O189        V194   1.934       .  S
O189        C198   1.272       .  A
O190        V194   1.921       .  S
O190        C197   1.270       .  A
O191        V194   1.909       .  S
O191        C196   1.265       .  A
O192        V194   1.904       .  S
O192        C195   1.262       .  A
V193        V194   2.082       .  T
C195        C328   1.467       .  S
C196        C280   1.472       .  S
C197        C292   1.457       .  S
C198        C301   1.483       .  S
C199        C253   1.558       .  S
C199        C340   1.609   1_655  S
C199        C844   1.597       .  S
C199       C1480   1.587       .  S
C200        C241   1.556       .  S
C200        C268   1.603       .  S
C200        C709   1.570       .  S
C200       C1288   1.595   1_545  S
C201        C232   1.582       .  S
C201        C316   1.576       .  S
C201        C976   1.588       .  S
C201       C1444   1.609   1_545  S
C202        C217   1.586       .  S
C202        C400   1.605       .  S
C202        C520   1.586   1_455  S
C202       C1636   1.606   1_455  S
O203        V211   1.880   1_565  S
O203        C213   1.265       .  A
O204        V211   1.887   1_455  S
O204        C214   1.264       .  A
O205        V211   1.845       .  S
O205        C215   1.255       .  A
O206        V211   1.842   1_465  S
O206        C216   1.249   1_565  A
O207        V212   1.931   1_455  S
O207        C216   1.273       .  A
O208        V212   1.930       .  S
O208        C215   1.274       .  A
O209        V212   1.907       .  S
O209        C214   1.267   1_655  A
O210        V212   1.912   1_565  S
O210        C213   1.268       .  A
V211        V212   2.050       .  T
C213        C256   1.483       .  S
C214        C220   1.464       .  S
C215        C244   1.477       .  S
C216        C229   1.469       .  S
C217        C218   1.424       .  A
C217        C222   1.436   1_455  A
C218        C219   1.391       .  A
C218        H227   1.079       .  S
C219        C220   1.398       .  A
C219        S223   1.801       .  S
C220        C221   1.392   1_455  A
C221        C222   1.407       .  A
C221        H228   1.083       .  S
C222        S224   1.792       .  S
S223        H226   1.407       .  S
S224        H225   1.407       .  S
C229        C230   1.396       .  A
C229        C234   1.411       .  A
C230        C231   1.410       .  A
C230        H239   1.084       .  S
C231        C232   1.442       .  A
C231        S235   1.793       .  S
C232        C233   1.399       .  A
C233        C234   1.370       .  A
C233        H240   1.049       .  S
C234        S236   1.823       .  S
S235        H238   1.399       .  S
S236        H237   1.408       .  S
C241        C242   1.426       .  A
C241        C246   1.438       .  A
C242        C243   1.402       .  A
C242        H251   1.078       .  S
C243        C244   1.403       .  A
C243        S247   1.800       .  S
C244        C245   1.403       .  A
C245        C246   1.379       .  A
C245        H252   1.084       .  S
C246        S248   1.829       .  S
S247        H250   1.407       .  S
S248        H249   1.394       .  S
C253        C254   1.420       .  A
C253        C258   1.446       .  A
C254        C255   1.403       .  A
C254        H263   1.079       .  S
C255        C256   1.410       .  A
C255        S259   1.800       .  S
C256        C257   1.397       .  A
C257        C258   1.389       .  A
C257        H264   1.084       .  S
C258        S260   1.824       .  S
S259        H262   1.408       .  S
S260        H261   1.395       .  S
C265        C266   1.424       .  A
C265        C270   1.424       .  A
C266        C267   1.395       .  A
C266        H275   1.084       .  S
C267        C268   1.420       .  A
C267        S271   1.788       .  S
C268        C269   1.429       .  A
C269        C270   1.399       .  A
C269        H276   1.080       .  S
C270        S272   1.805       .  S
S271        H274   1.403       .  S
S272        H273   1.408       .  S
C277        C278   1.416       .  A
C277        C282   1.440       .  A
C278        C279   1.404       .  A
C278        H287   1.072       .  S
C279        C280   1.410       .  A
C279        S283   1.807       .  S
C280        C281   1.393       .  A
C281        C282   1.396       .  A
C281        H288   1.085       .  S
C282        S284   1.811       .  S
S283        H286   1.400       .  S
S284        H285   1.398       .  S
C289        C290   1.419       .  A
C289        C294   1.439       .  A
C290        C291   1.387       .  A
C290        H299   1.073       .  S
C291        C292   1.398       .  A
C291        S295   1.809       .  S
C292        C293   1.393       .  A
C293        C294   1.408       .  A
C293        H300   1.083       .  S
C294        S296   1.807       .  S
S295        H298   1.406       .  S
S296        H297   1.407       .  S
C301        C302   1.402       .  A
C301        C306   1.408       .  A
C302        C303   1.421       .  A
C302        H311   1.082       .  S
C303        C304   1.442       .  A
C303        S307   1.809       .  S
C304        C305   1.411       .  A
C305        C306   1.374       .  A
C305        H312   1.062       .  S
C306        S308   1.815       .  S
S307        H310   1.406       .  S
S308        H309   1.402       .  S
C313        C314   1.415       .  A
C313        C318   1.443       .  A
C314        C315   1.400       .  A
C314        H323   1.075       .  S
C315        C316   1.422       .  A
C315        S319   1.797       .  S
C316        C317   1.402       .  A
C317        C318   1.401       .  A
C317        H324   1.083       .  S
C318        S320   1.803       .  S
S319        H322   1.405       .  S
S320        H321   1.408       .  S
C325        C326   1.424       .  A
C325        C330   1.428       .  A
C326        C327   1.386       .  A
C326        H335   1.080       .  S
C327        C328   1.397       .  A
C327        S331   1.802       .  S
C328        C329   1.400       .  A
C329        C330   1.410       .  A
C329        H336   1.084       .  S
C330        S332   1.795       .  S
S331        H334   1.406       .  S
S332        H333   1.398       .  S
C337        C338   1.416       .  A
C337        C342   1.436       .  A
C338        C339   1.392       .  A
C338        H347   1.082       .  S
C339        C340   1.420       .  A
C339        S343   1.807       .  S
C340        C341   1.425       .  A
C341        C342   1.418       .  A
C341        H348   1.072       .  S
C342        S344   1.811       .  S
S343        H346   1.407       .  S
S344        H345   1.407       .  S
C349        C350   1.417       .  A
C349        C354   1.433       .  A
C350        C351   1.382       .  A
C350        H359   1.079       .  S
C351        C352   1.396       .  A
C351        S355   1.800       .  S
C352        C353   1.397       .  A
C353        C354   1.409       .  A
C353        H360   1.083       .  S
C354        S356   1.806       .  S
S355        H358   1.406       .  S
S356        H357   1.407       .  S
C361        C362   1.397       .  A
C361        C366   1.400       .  A
C362        C363   1.405       .  A
C362        H371   1.079       .  S
C363        C364   1.430       .  A
C363        S367   1.793       .  S
C364        C365   1.425       .  A
C365        C366   1.394       .  A
C365        H372   1.080       .  S
C366        S368   1.804       .  S
S367        H370   1.405       .  S
S368        H369   1.407       .  S
C373        C374   1.415       .  A
C373        C378   1.443       .  A
C374        C375   1.379       .  A
C374        H383   1.070       .  S
C375        C376   1.411       .  A
C375        S379   1.808       .  S
C376        C377   1.401       .  A
C377        C378   1.412       .  A
C377        H384   1.084       .  S
C378        S380   1.800       .  S
S379        H382   1.408       .  S
S380        H381   1.394       .  S
C385        C386   1.418       .  A
C385        C390   1.431       .  A
C386        C387   1.415       .  A
C386        H395   1.072       .  S
C387        C388   1.442       .  A
C387        S391   1.812       .  S
C388        C389   1.421       .  A
C389        C390   1.412       .  A
C389        H396   1.081       .  S
C390        S392   1.804       .  S
S391        H394   1.395       .  S
S392        H393   1.397       .  S
C397        C398   1.412       .  A
C397        C402   1.430       .  A
C398        C399   1.404       .  A
C398        H407   1.083       .  S
C399        C400   1.432       .  A
C399        S403   1.807       .  S
C400        C401   1.423       .  A
C401        C402   1.419       .  A
C401        H408   1.074       .  S
C402        S404   1.801       .  S
S403        H406   1.408       .  S
S404        H405   1.406       .  S
C409        C410   1.407       .  A
C409        C414   1.402       .  A
C410        C411   1.420       .  A
C410        H419   1.083       .  S
C411        C412   1.439       .  A
C411        S415   1.795       .  S
C412        C413   1.422       .  A
C413        C414   1.375       .  A
C413        H420   1.059       .  S
C414        S416   1.816       .  S
S415        H418   1.406       .  S
S416        H417   1.404       .  S
C421        C422   1.414       .  A
C421        C426   1.429       .  A
C422        C423   1.415       .  A
C422        H431   1.078       .  S
C423        C424   1.442       .  A
C423        S427   1.804       .  S
C424        C425   1.412       .  A
C425        C426   1.405       .  A
C425        H432   1.083       .  S
C426        S428   1.802       .  S
S427        H430   1.408       .  S
S428        H429   1.407       .  S
C433        C434   1.422       .  A
C433        C438   1.435   1_545  A
C434        C435   1.395       .  A
C434        H443   1.080       .  S
C435        C436   1.400       .  A
C435        S439   1.801       .  S
C436        C437   1.390   1_545  A
C437        C438   1.405       .  A
C437        H444   1.084       .  S
C438        S440   1.793       .  S
S439        H442   1.407       .  S
S440        H441   1.407       .  S
C445        C446   1.398       .  A
C445        C450   1.437       .  A
C446        C447   1.389       .  A
C446        H455   1.079   1_455  S
C447        C448   1.441       .  A
C447        S451   1.797       .  S
C448        C449   1.408       .  A
C449        C450   1.408       .  A
C449        H456   1.084       .  S
C450        S452   1.783       .  S
S451        H454   1.409       .  S
S452        H453   1.407       .  S
C457        C458   1.405       .  A
C457        C462   1.435   1_455  A
C458        C459   1.378       .  A
C458        H467   1.073       .  S
C459        C460   1.414       .  A
C459        S463   1.810       .  S
C460        C461   1.395   1_455  A
C461        C462   1.406       .  A
C461        H468   1.083       .  S
C462        S464   1.810       .  S
S463        H466   1.380       .  S
S464        H465   1.406       .  S
C469        C470   1.392       .  A
C469        C474   1.455       .  A
C470        C471   1.398       .  A
C470        H479   1.072       .  S
C471        C472   1.443       .  A
C471        S475   1.800       .  S
C472        C473   1.400       .  A
C473        C474   1.403       .  A
C473        H480   1.080       .  S
C474        S476   1.819       .  S
S475        H478   1.409       .  S
S476        H477   1.394       .  S
C481        C482   1.424       .  A
C481        C486   1.436       .  A
C482        C483   1.403       .  A
C482        H491   1.080       .  S
C483        C484   1.405       .  A
C483        S487   1.798       .  S
C484        C485   1.401   1_455  A
C485        C486   1.372   1_655  A
C485        H492   1.084       .  S
C486        S488   1.828       .  S
S487        H490   1.407       .  S
S488        H489   1.394       .  S
C493        C494   1.411       .  A
C493        C498   1.447       .  A
C494        C495   1.393       .  A
C494        H503   1.082       .  S
C495        C496   1.424       .  A
C495        S499   1.809       .  S
C496        C497   1.409       .  A
C497        C498   1.409       .  A
C497        H504   1.077       .  S
C498        S500   1.810       .  S
S499        H502   1.407       .  S
S500        H501   1.393       .  S
C505        C506   1.424   1_545  A
C505        C510   1.446       .  A
C506        C507   1.411       .  A
C506        H515   1.083       .  S
C507        C508   1.409   1_565  A
C507        S511   1.803       .  S
C508        C509   1.381       .  A
C509        C510   1.389       .  A
C509        H516   1.087       .  S
C510        S512   1.801       .  S
S511        H514   1.405       .  S
S512        H513   1.385       .  S
C517        C518   1.408   1_455  A
C517        C522   1.437       .  A
C518        C519   1.402       .  A
C518        H527   1.077       .  S
C519        C520   1.430       .  A
C519        S523   1.799       .  S
C520        C521   1.416   1_655  A
C521        C522   1.410       .  A
C521        H528   1.083       .  S
C522        S524   1.811       .  S
S523        H526   1.407       .  S
S524        H525   1.392       .  S
C529        C530   1.419       .  A
C529        C534   1.422       .  A
C530        C531   1.419       .  A
C530        H539   1.077       .  S
C531        C532   1.442       .  A
C531        S535   1.810       .  S
C532        C533   1.417       .  A
C533        C534   1.389       .  A
C533        H540   1.071       .  S
C534        S536   1.798       .  S
S535        H538   1.408       .  S
S536        H537   1.390       .  S
C541        C542   1.418       .  A
C541        C546   1.439       .  A
C542        C543   1.381       .  A
C542        H551   1.085       .  S
C543        C544   1.413   1_655  A
C543        S547   1.805       .  S
C544        C545   1.401   1_455  A
C545        C546   1.416       .  A
C545        H552   1.082       .  S
C546        S548   1.807       .  S
S547        H550   1.408   1_655  S
S548        H549   1.406       .  S
C553        C554   1.420       .  A
C553        C558   1.438   1_556  A
C554        C555   1.389       .  A
C554        H563   1.079       .  S
C555        C556   1.399       .  A
C555        S559   1.801       .  S
C556        C557   1.391   1_556  A
C557        C558   1.405       .  A
C557        H564   1.083       .  S
C558        S560   1.801       .  S
S559        H562   1.406       .  S
S560        H561   1.407       .  S
C565        C566   1.406   1_655  A
C565        C570   1.413       .  A
C566        C567   1.401       .  A
C566        H575   1.074       .  S
C567        C568   1.443   1_455  A
C567        S571   1.818       .  S
C568        C569   1.414       .  A
C569        C570   1.399       .  A
C569        H576   1.081       .  S
C570        S572   1.803       .  S
S571        H574   1.408       .  S
S572        H573   1.405       .  S
C577        C578   1.392       .  A
C577        C582   1.434       .  A
C578        C579   1.404       .  A
C578        H587   1.068       .  S
C579        C580   1.432       .  A
C579        S583   1.812       .  S
C580        C581   1.414       .  A
C581        C582   1.406       .  A
C581        H588   1.075       .  S
C582        S584   1.814       .  S
S583        H586   1.406       .  S
S584        H585   1.407       .  S
C589        C590   1.410   1_655  A
C589        C594   1.436       .  A
C590        C591   1.379       .  A
C590        H599   1.077       .  S
C591        C592   1.413       .  A
C591        S595   1.812       .  S
C592        C593   1.403   1_455  A
C593        C594   1.416       .  A
C593        H600   1.082       .  S
C594        S596   1.808       .  S
S595        H598   1.407       .  S
S596        H597   1.407       .  S
C601        C602   1.421       .  A
C601        C606   1.432       .  A
C602        C603   1.378       .  A
C602        H611   1.082   1_554  S
C603        C604   1.405       .  A
C603        S607   1.804       .  S
C604        C605   1.405       .  A
C605        C606   1.409       .  A
C605        H612   1.082       .  S
C606        S608   1.810       .  S
S607        H610   1.408       .  S
S608        H609   1.406       .  S
C613        C614   1.428       .  A
C613        C618   1.431       .  A
C614        C615   1.430       .  A
C614        H623   1.071       .  S
C615        C616   1.444       .  A
C615        S619   1.804       .  S
C616        C617   1.405       .  A
C617        C618   1.369       .  A
C617        H624   1.071   1_554  S
C618        S620   1.803       .  S
S619        H622   1.390       .  S
S620        H621   1.395       .  S
C625        C626   1.423       .  A
C625        C630   1.445       .  A
C626        C627   1.406       .  A
C626        H635   1.074       .  S
C627        C628   1.404       .  A
C627        S631   1.802       .  S
C628        C629   1.389       .  A
C629        C630   1.397       .  A
C629        H636   1.084       .  S
C630        S632   1.811       .  S
S631        H634   1.406       .  S
S632        H633   1.408       .  S
C637        C638   1.422       .  A
C637        C642   1.439       .  A
C638        C639   1.378       .  A
C638        H647   1.085       .  S
C639        C640   1.410       .  A
C639        S643   1.807       .  S
C640        C641   1.402       .  A
C641        C642   1.413       .  A
C641        H648   1.082       .  S
C642        S644   1.808       .  S
S643        H646   1.408       .  S
S644        H645   1.406       .  S
C649        C650   1.414       .  A
C649        C654   1.435       .  A
C650        C651   1.410       .  A
C650        H659   1.078       .  S
C651        C652   1.426       .  A
C651        S655   1.805       .  S
C652        C653   1.411       .  A
C653        C654   1.399       .  A
C653        H660   1.078       .  S
C654        S656   1.807       .  S
S655        H658   1.407       .  S
S656        H657   1.404       .  S
C661        C662   1.432       .  A
C661        C666   1.453       .  A
C662        C663   1.409       .  A
C662        H671   1.059       .  S
C663        C664   1.397       .  A
C663        S667   1.801       .  S
C664        C665   1.383       .  A
C665        C666   1.381       .  A
C665        H672   1.084       .  S
C666        S668   1.814       .  S
S667        H670   1.405       .  S
S668        H669   1.409       .  S
C673        C674   1.410       .  A
C673        C678   1.431       .  A
C674        C675   1.400       .  A
C674        H683   1.072       .  S
C675        C676   1.439       .  A
C675        S679   1.810       .  S
C676        C677   1.418       .  A
C677        C678   1.408       .  A
C677        H684   1.082       .  S
C678        S680   1.811       .  S
S679        H682   1.390       .  S
S680        H681   1.393       .  S
C685        C686   1.422       .  A
C685        C690   1.434       .  A
C686        C687   1.407       .  A
C686        H695   1.081       .  S
C687        C688   1.423       .  A
C687        S691   1.809       .  S
C688        C689   1.415       .  A
C689        C690   1.405       .  A
C689        H696   1.072       .  S
C690        S692   1.802       .  S
S691        H694   1.407       .  S
S692        H693   1.389       .  S
C697        C698   1.394       .  A
C697        C702   1.404       .  A
C698        C699   1.405       .  A
C698        H707   1.084       .  S
C699        C700   1.435       .  A
C699        S703   1.790       .  S
C700        C701   1.418       .  A
C701        C702   1.394       .  A
C701        H708   1.081       .  S
C702        S704   1.796       .  S
S703        H706   1.399       .  S
S704        H705   1.406       .  S
C709        C710   1.418       .  A
C709        C714   1.428   1_545  A
C710        C711   1.393       .  A
C710        H719   1.072       .  S
C711        C712   1.417       .  A
C711        S715   1.811       .  S
C712        C713   1.416   1_545  A
C713        C714   1.403       .  A
C713        H720   1.081       .  S
C714        S716   1.809       .  S
S715        H718   1.406       .  S
S716        H717   1.406       .  S
C721        C722   1.412       .  A
C721        C726   1.435       .  A
C722        C723   1.412       .  A
C722        H731   1.067       .  S
C723        C724   1.440       .  A
C723        S727   1.808       .  S
C724        C725   1.414       .  A
C725        C726   1.391       .  A
C725        H732   1.078       .  S
C726        S728   1.816       .  S
S727        H730   1.396       .  S
S728        H729   1.399       .  S
C733        C734   1.402       .  A
C733        C738   1.408       .  A
C734        C735   1.402       .  A
C734        H743   1.082       .  S
C735        C736   1.436       .  A
C735        S739   1.811       .  S
C736        C737   1.421       .  A
C737        C738   1.382       .  A
C737        H744   1.085       .  S
C738        S740   1.803       .  S
S739        H742   1.407       .  S
S740        H741   1.408       .  S
C745        C746   1.398       .  A
C745        C750   1.439   1_554  A
C746        C747   1.406       .  A
C746        H755   1.076       .  S
C747        C748   1.453       .  A
C747        S751   1.811       .  S
C748        C749   1.412   1_554  A
C749        C750   1.420       .  A
C749        H756   1.081       .  S
C750        S752   1.810       .  S
S751        H754   1.409       .  S
S752        H753   1.406       .  S
C757        C758   1.408       .  A
C757        C762   1.446       .  A
C758        C759   1.402       .  A
C758        H767   1.065       .  S
C759        C760   1.428       .  A
C759        S763   1.797       .  S
C760        C761   1.413       .  A
C761        C762   1.395       .  A
C761        H768   1.077       .  S
C762        S764   1.817       .  S
S763        H766   1.406       .  S
S764        H765   1.403       .  S
C769        C770   1.421       .  A
C769        C774   1.449   1_556  A
C770        C771   1.410       .  A
C770        H779   1.078       .  S
C771        C772   1.413       .  A
C771        S775   1.798       .  S
C772        C773   1.399       .  A
C773        C774   1.390   1_556  A
C773        H780   1.084   1_556  S
C774        S776   1.826       .  S
S775        H778   1.407   1_556  S
S776        H777   1.393   1_554  S
C781        C782   1.401       .  A
C781        C786   1.447   1_545  A
C782        C783   1.393       .  A
C782        H791   1.065       .  S
C783        C784   1.419       .  A
C783        S787   1.789       .  S
C784        C785   1.416   1_545  A
C785        C786   1.415       .  A
C785        H792   1.080       .  S
C786        S788   1.814       .  S
S787        H790   1.407       .  S
S788        H789   1.390       .  S
C793        C794   1.406       .  A
C793        C798   1.439       .  A
C794        C795   1.410       .  A
C794        H803   1.069       .  S
C795        C796   1.442       .  A
C795        S799   1.806       .  S
C796        C797   1.409       .  A
C797        C798   1.417       .  A
C797        H804   1.079       .  S
C798        S800   1.806       .  S
S799        H802   1.407       .  S
S800        H801   1.408       .  S
C805        C806   1.417   1_545  A
C805        C810   1.411       .  A
C806        C807   1.416       .  A
C806        H815   1.073       .  S
C807        C808   1.422   1_565  A
C807        S811   1.798       .  S
C808        C809   1.395       .  A
C809        C810   1.377       .  A
C809        H816   1.085       .  S
C810        S812   1.814       .  S
S811        H814   1.404       .  S
S812        H813   1.407       .  S
C817        C818   1.413       .  A
C817        C822   1.444       .  A
C818        C819   1.399       .  A
C818        H827   1.081       .  S
C819        C820   1.425       .  A
C819        S823   1.812       .  S
C820        C821   1.406       .  A
C821        C822   1.419       .  A
C821        H828   1.073       .  S
C822        S824   1.810       .  S
S823        H826   1.407       .  S
S824        H825   1.404       .  S
C829        C830   1.422   1_554  A
C829        C834   1.433       .  A
C830        C831   1.388       .  A
C830        H839   1.078       .  S
C831        C832   1.404       .  A
C831        S835   1.807       .  S
C832        C833   1.395   1_556  A
C833        C834   1.404       .  A
C833        H840   1.084       .  S
C834        S836   1.783       .  S
S835        H838   1.399       .  S
S836        H837   1.408       .  S
C841        C842   1.417       .  A
C841        C846   1.431   1_655  A
C842        C843   1.418       .  A
C842        H851   1.082       .  S
C843        C844   1.431       .  A
C843        S847   1.797       .  S
C844        C845   1.411   1_655  A
C845        C846   1.400       .  A
C845        H852   1.078       .  S
C846        S848   1.812       .  S
S847        H850   1.407       .  S
S848        H849   1.407       .  S
C853        C854   1.423       .  A
C853        C858   1.434       .  A
C854        C855   1.391       .  A
C854        H863   1.076       .  S
C855        C856   1.417       .  A
C855        S859   1.799   1_455  S
C856        C857   1.419       .  A
C857        C858   1.410       .  A
C857        H864   1.084       .  S
C858        S860   1.795       .  S
S859        H862   1.401   1_655  S
S860        H861   1.407       .  S
C865        C866   1.432   1_455  A
C865        C870   1.444       .  A
C866        C867   1.418       .  A
C866        H875   1.072       .  S
C867        C868   1.406   1_655  A
C867        S871   1.798       .  S
C868        C869   1.396       .  A
C869        C870   1.388       .  A
C869        H876   1.082       .  S
C870        S872   1.814       .  S
S871        H874   1.406   1_655  S
S872        H873   1.407       .  S
C877        C878   1.415       .  A
C877        C882   1.425       .  A
C878        C879   1.398       .  A
C878        H887   1.082       .  S
C879        C880   1.428       .  A
C879        S883   1.803       .  S
C880        C881   1.416       .  A
C881        C882   1.409       .  A
C881        H888   1.073       .  S
C882        S884   1.799       .  S
S883        H886   1.407       .  S
S884        H885   1.407       .  S
C889        C890   1.399   1_554  A
C889        C894   1.397       .  A
C890        C891   1.413       .  A
C890        H899   1.083       .  S
C891        C892   1.431   1_556  A
C891        S895   1.802       .  S
C892        C893   1.422       .  A
C893        C894   1.390       .  A
C893        H900   1.079       .  S
C894        S896   1.803       .  S
S895        H898   1.407       .  S
S896        H897   1.406       .  S
C901        C902   1.419   1_556  A
C901        C906   1.426       .  A
C902        C903   1.405       .  A
C902        H911   1.078       .  S
C903        C904   1.439       .  A
C903        S907   1.816       .  S
C904        C905   1.417   1_554  A
C905        C906   1.417       .  A
C905        H912   1.083       .  S
C906        S908   1.782       .  S
S907        H910   1.408       .  S
S908        H909   1.407       .  S
C913        C914   1.421       .  A
C913        C918   1.431       .  A
C914        C915   1.406       .  A
C914        H923   1.082       .  S
C915        C916   1.428       .  A
C915        S919   1.807       .  S
C916        C917   1.421       .  A
C917        C918   1.409       .  A
C917        H924   1.083       .  S
C918        S920   1.809       .  S
S919        H922   1.409       .  S
S920        H921   1.408       .  S
C925        C926   1.420   1_556  A
C925        C930   1.452       .  A
C926        C927   1.404       .  A
C926        H935   1.080       .  S
C927        C928   1.404   1_554  A
C927        S931   1.803       .  S
C928        C929   1.387       .  A
C929        C930   1.394       .  A
C929        H936   1.086       .  S
C930        S932   1.823       .  S
S931        H934   1.406       .  S
S932        H933   1.384       .  S
C937        C938   1.412   1_455  A
C937        C942   1.434       .  A
C938        C939   1.394       .  A
C938        H947   1.079       .  S
C939        C940   1.438   1_655  A
C939        S943   1.818       .  S
C940        C941   1.406       .  A
C941        C942   1.412       .  A
C941        H948   1.083       .  S
C942        S944   1.804       .  S
S943        H946   1.402       .  S
S944        H945   1.407       .  S
C949        C950   1.417       .  A
C949        C954   1.432       .  A
C950        C951   1.425       .  A
C950        H959   1.075       .  S
C951        C952   1.444       .  A
C951        S955   1.808       .  S
C952        C953   1.418       .  A
C953        C954   1.396       .  A
C953        H960   1.079       .  S
C954        S956   1.804       .  S
S955        H958   1.407       .  S
S956        H957   1.391       .  S
C961        C962   1.393   1_455  A
C961        C966   1.410       .  A
C962        C963   1.416       .  A
C962        H971   1.082       .  S
C963        C964   1.452   1_655  A
C963        S967   1.806       .  S
C964        C965   1.412       .  A
C965        C966   1.397       .  A
C965        H972   1.061       .  S
C966        S968   1.808       .  S
S967        H970   1.407       .  S
S968        H969   1.408       .  S
C973        C974   1.416   1_545  A
C973        C978   1.435       .  A
C974        C975   1.408       .  A
C974        H983   1.082       .  S
C975        C976   1.437   1_565  A
C975        S979   1.821       .  S
C976        C977   1.418       .  A
C977        C978   1.402       .  A
C977        H984   1.075       .  S
C978        S980   1.816       .  S
S979        H982   1.394       .  S
S980        H981   1.408       .  S
C985        C986   1.418       .  A
C985        C990   1.433       .  A
C986        C987   1.395       .  A
C986        H995   1.078       .  S
C987        C988   1.412       .  A
C987        S991   1.789       .  S
C988        C989   1.423       .  A
C989        C990   1.414       .  A
C989        H996   1.062       .  S
C990        S992   1.800       .  S
S991        H994   1.385       .  S
S992        H993   1.405       .  S
C997        C998   1.418   1_545  A
C997       C1002   1.438       .  A
C998        C999   1.389       .  A
C998       H1007   1.081       .  S
C999       C1000   1.398   1_565  A
C999       S1003   1.794       .  S
C1000      C1001   1.394       .  A
C1001      C1002   1.403       .  A
C1001      H1008   1.082       .  S
C1002      S1004   1.802       .  S
S1003      H1006   1.406       .  S
S1004      H1005   1.386       .  S
C1009      C1010   1.415       .  A
C1009      C1014   1.417   1_556  A
C1010      C1011   1.407       .  A
C1010      H1019   1.066       .  S
C1011      C1012   1.432       .  A
C1011      S1015   1.810       .  S
C1012      C1013   1.418   1_556  A
C1013      C1014   1.409       .  A
C1013      H1020   1.080       .  S
C1014      S1016   1.809       .  S
S1015      H1018   1.407       .  S
S1016      H1017   1.407       .  S
C1021      C1022   1.420       .  A
C1021      C1026   1.424       .  A
C1022      C1023   1.407       .  A
C1022      H1031   1.052       .  S
C1023      C1024   1.431       .  A
C1023      S1027   1.818       .  S
C1024      C1025   1.410       .  A
C1025      C1026   1.386       .  A
C1025      H1032   1.068       .  S
C1026      S1028   1.809   1_554  S
S1027      H1030   1.393       .  S
S1028      H1029   1.406       .  S
C1033      C1034   1.422       .  A
C1033      C1038   1.442   1_554  A
C1034      C1035   1.389       .  A
C1034      H1043   1.064       .  S
C1035      C1036   1.399       .  A
C1035      S1039   1.807       .  S
C1036      C1037   1.390   1_554  A
C1037      C1038   1.405       .  A
C1037      H1044   1.084       .  S
C1038      S1040   1.804       .  S
S1039      H1042   1.402       .  S
S1040      H1041   1.407       .  S
C1045      C1046   1.413   1_554  A
C1045      C1050   1.430       .  A
C1046      C1047   1.403       .  A
C1046      H1055   1.076       .  S
C1047      C1048   1.438   1_556  A
C1047      S1051   1.814       .  S
C1048      C1049   1.414       .  A
C1049      C1050   1.412       .  A
C1049      H1056   1.083       .  S
C1050      S1052   1.792       .  S
S1051      H1054   1.408       .  S
S1052      H1053   1.406       .  S
C1057      C1058   1.426       .  A
C1057      C1062   1.416       .  A
C1058      C1059   1.408       .  A
C1058      H1067   1.082       .  S
C1059      C1060   1.426       .  A
C1059      S1063   1.795       .  S
C1060      C1061   1.422       .  A
C1061      C1062   1.394       .  A
C1061      H1068   1.078       .  S
C1062      S1064   1.781       .  S
S1063      H1066   1.401       .  S
S1064      H1065   1.409       .  S
C1069      C1070   1.423   1_554  A
C1069      C1074   1.436       .  A
C1070      C1071   1.407       .  A
C1070      H1079   1.083       .  S
C1071      C1072   1.406   1_556  A
C1071      S1075   1.801       .  S
C1072      C1073   1.386       .  A
C1073      C1074   1.379       .  A
C1073      H1080   1.083       .  S
C1074      S1076   1.811       .  S
S1075      H1078   1.406       .  S
S1076      H1077   1.387       .  S
C1081      C1082   1.410   1_545  A
C1081      C1086   1.430       .  A
C1082      C1083   1.402       .  A
C1082      H1091   1.074       .  S
C1083      C1084   1.441       .  A
C1083      S1087   1.819       .  S
C1084      C1085   1.421   1_565  A
C1085      C1086   1.404       .  A
C1085      H1092   1.081       .  S
C1086      S1088   1.815       .  S
S1087      H1090   1.387       .  S
S1088      H1089   1.399       .  S
C1093      C1094   1.419       .  A
C1093      C1098   1.437       .  A
C1094      C1095   1.412       .  A
C1094      H1103   1.079       .  S
C1095      C1096   1.439       .  A
C1095      S1099   1.804       .  S
C1096      C1097   1.410       .  A
C1097      C1098   1.397       .  A
C1097      H1104   1.071       .  S
C1098      S1100   1.818       .  S
S1099      H1102   1.404       .  S
S1100      H1101   1.377       .  S
C1105      C1106   1.427   1_545  A
C1105      C1110   1.448       .  A
C1106      C1107   1.383       .  A
C1106      H1115   1.081       .  S
C1107      C1108   1.403   1_565  A
C1107      S1111   1.806       .  S
C1108      C1109   1.397       .  A
C1109      C1110   1.406       .  A
C1109      H1116   1.084       .  S
C1110      S1112   1.807       .  S
S1111      H1114   1.408       .  S
S1112      H1113   1.398   1_545  S
C1117      C1118   1.431       .  A
C1117      C1122   1.428       .  A
C1118      C1119   1.412       .  A
C1118      H1127   1.081       .  S
C1119      C1120   1.423       .  A
C1119      S1123   1.806       .  S
C1120      C1121   1.422       .  A
C1121      C1122   1.406       .  A
C1121      H1128   1.070   1_556  S
C1122      S1124   1.802       .  S
S1123      H1126   1.404       .  S
S1124      H1125   1.407       .  S
C1129      C1130   1.420       .  A
C1129      C1134   1.421       .  A
C1130      C1131   1.417       .  A
C1130      H1139   1.075       .  S
C1131      C1132   1.436       .  A
C1131      S1135   1.811       .  S
C1132      C1133   1.416       .  A
C1133      C1134   1.399       .  A
C1133      H1140   1.068       .  S
C1134      S1136   1.816       .  S
S1135      H1138   1.407       .  S
S1136      H1137   1.406       .  S
C1141      C1142   1.429       .  A
C1141      C1146   1.449       .  A
C1142      C1143   1.415       .  A
C1142      H1151   1.075       .  S
C1143      C1144   1.407       .  A
C1143      S1147   1.798       .  S
C1144      C1145   1.404       .  A
C1145      C1146   1.386       .  A
C1145      H1152   1.083       .  S
C1146      S1148   1.835       .  S
S1147      H1150   1.407       .  S
S1148      H1149   1.392       .  S
C1153      C1154   1.403       .  A
C1153      C1158   1.420       .  A
C1154      C1155   1.391       .  A
C1154      H1163   1.082       .  S
C1155      C1156   1.435       .  A
C1155      S1159   1.797       .  S
C1156      C1157   1.423       .  A
C1157      C1158   1.405       .  A
C1157      H1164   1.079       .  S
C1158      S1160   1.804       .  S
S1159      H1162   1.391       .  S
S1160      H1161   1.407       .  S
C1165      C1166   1.396       .  A
C1165      C1170   1.442       .  A
C1166      C1167   1.388       .  A
C1166      H1175   1.067       .  S
C1167      C1168   1.436       .  A
C1167      S1171   1.805       .  S
C1168      C1169   1.412       .  A
C1169      C1170   1.427       .  A
C1169      H1176   1.080       .  S
C1170      S1172   1.806       .  S
S1171      H1174   1.409       .  S
S1172      H1173   1.406       .  S
C1177      C1178   1.421       .  A
C1177      C1182   1.432       .  A
C1178      C1179   1.384       .  A
C1178      H1187   1.079       .  S
C1179      C1180   1.394       .  A
C1179      S1183   1.806       .  S
C1180      C1181   1.395       .  A
C1181      C1182   1.404       .  A
C1181      H1188   1.083       .  S
C1182      S1184   1.804       .  S
S1183      H1186   1.406       .  S
S1184      H1185   1.407       .  S
C1189      C1190   1.421       .  A
C1189      C1194   1.431       .  A
C1190      C1191   1.413       .  A
C1190      H1199   1.079       .  S
C1191      C1192   1.427       .  A
C1191      S1195   1.811       .  S
C1192      C1193   1.403       .  A
C1193      C1194   1.393       .  A
C1193      H1200   1.074       .  S
C1194      S1196   1.793       .  S
S1195      H1198   1.406       .  S
S1196      H1197   1.393       .  S
C1201      C1202   1.413       .  A
C1201      C1206   1.435       .  A
C1202      C1203   1.405       .  A
C1202      H1211   1.077       .  S
C1203      C1204   1.425       .  A
C1203      S1207   1.798       .  S
C1204      C1205   1.411       .  A
C1205      C1206   1.387       .  A
C1205      H1212   1.068       .  S
C1206      S1208   1.810       .  S
S1207      H1210   1.404       .  S
S1208      H1209   1.409       .  S
C1213      C1214   1.416       .  A
C1213      C1218   1.428       .  A
C1214      C1215   1.414       .  A
C1214      H1223   1.077       .  S
C1215      C1216   1.431       .  A
C1215      S1219   1.801       .  S
C1216      C1217   1.412       .  A
C1217      C1218   1.393       .  A
C1217      H1224   1.079       .  S
C1218      S1220   1.813       .  S
S1219      H1222   1.407       .  S
S1220      H1221   1.407       .  S
C1225      C1226   1.403       .  A
C1225      C1230   1.396       .  A
C1226      C1227   1.412       .  A
C1226      H1235   1.083       .  S
C1227      C1228   1.428       .  A
C1227      S1231   1.804       .  S
C1228      C1229   1.429       .  A
C1229      C1230   1.388       .  A
C1229      H1236   1.076       .  S
C1230      S1232   1.807       .  S
S1231      H1234   1.407       .  S
S1232      H1233   1.406       .  S
C1237      C1238   1.413       .  A
C1237      C1242   1.441       .  A
C1238      C1239   1.390       .  A
C1238      H1247   1.070       .  S
C1239      C1240   1.435       .  A
C1239      S1243   1.816       .  S
C1240      C1241   1.416       .  A
C1241      C1242   1.419       .  A
C1241      H1248   1.084       .  S
C1242      S1244   1.802       .  S
S1243      H1246   1.408       .  S
S1244      H1245   1.374       .  S
C1249      C1250   1.427       .  A
C1249      C1254   1.435       .  A
C1250      C1251   1.418       .  A
C1250      H1259   1.071       .  S
C1251      C1252   1.432       .  A
C1251      S1255   1.805       .  S
C1252      C1253   1.433       .  A
C1253      C1254   1.415       .  A
C1253      H1260   1.075       .  S
C1254      S1256   1.817       .  S
S1255      H1258   1.382       .  S
S1256      H1257   1.408       .  S
C1261      C1262   1.409       .  A
C1261      C1266   1.439       .  A
C1262      C1263   1.408       .  A
C1262      H1271   1.065       .  S
C1263      C1264   1.438       .  A
C1263      S1267   1.811       .  S
C1264      C1265   1.413       .  A
C1265      C1266   1.393       .  A
C1265      H1272   1.074       .  S
C1266      S1268   1.817       .  S
S1267      H1270   1.407       .  S
S1268      H1269   1.402       .  S
C1273      C1274   1.401       .  A
C1273      C1278   1.412       .  A
C1274      C1275   1.424       .  A
C1274      H1283   1.082       .  S
C1275      C1276   1.448       .  A
C1275      S1279   1.807       .  S
C1276      C1277   1.416       .  A
C1277      C1278   1.377       .  A
C1277      H1284   1.079       .  S
C1278      S1280   1.811       .  S
S1279      H1282   1.406       .  S
S1280      H1281   1.408       .  S
C1285      C1286   1.407       .  A
C1285      C1290   1.437       .  A
C1286      C1287   1.388       .  A
C1286      H1295   1.071       .  S
C1287      C1288   1.432       .  A
C1287      S1291   1.817       .  S
C1288      C1289   1.410       .  A
C1289      C1290   1.419       .  A
C1289      H1296   1.075       .  S
C1290      S1292   1.809       .  S
S1291      H1294   1.397       .  S
S1292      H1293   1.405       .  S
C1297      C1298   1.415       .  A
C1297      C1302   1.438       .  A
C1298      C1299   1.397       .  A
C1298      H1307   1.076       .  S
C1299      C1300   1.425       .  A
C1299      S1303   1.800       .  S
C1300      C1301   1.424       .  A
C1301      C1302   1.418       .  A
C1301      H1308   1.075       .  S
C1302      S1304   1.813       .  S
S1303      H1306   1.408       .  S
S1304      H1305   1.388       .  S
C1309      C1310   1.423       .  A
C1309      C1314   1.438       .  A
C1310      C1311   1.396       .  A
C1310      H1319   1.080       .  S
C1311      C1312   1.404       .  A
C1311      S1315   1.805       .  S
C1312      C1313   1.390       .  A
C1313      C1314   1.405       .  A
C1313      H1320   1.084       .  S
C1314      S1316   1.790       .  S
S1315      H1318   1.403       .  S
S1316      H1317   1.408       .  S
C1321      C1322   1.425       .  A
C1321      C1326   1.421       .  A
C1322      C1323   1.417       .  A
C1322      H1331   1.081       .  S
C1323      C1324   1.438       .  A
C1323      S1327   1.815       .  S
C1324      C1325   1.424       .  A
C1325      C1326   1.412       .  A
C1325      H1332   1.075       .  S
C1326      S1328   1.803       .  S
S1327      H1330   1.390       .  S
S1328      H1329   1.405       .  S
C1333      C1334   1.418       .  A
C1333      C1338   1.438       .  A
C1334      C1335   1.421       .  A
C1334      H1343   1.069       .  S
C1335      C1336   1.435       .  A
C1335      S1339   1.798       .  S
C1336      C1337   1.413       .  A
C1337      C1338   1.405       .  A
C1337      H1344   1.077       .  S
C1338      S1340   1.795       .  S
S1339      H1342   1.407       .  S
S1340      H1341   1.407       .  S
C1345      C1346   1.414       .  A
C1345      C1350   1.411       .  A
C1346      C1347   1.414       .  A
C1346      H1355   1.080       .  S
C1347      C1348   1.451       .  A
C1347      S1351   1.809       .  S
C1348      C1349   1.418       .  A
C1349      C1350   1.384       .  A
C1349      H1356   1.067   1_565  S
C1350      S1352   1.800       .  S
S1351      H1354   1.377       .  S
S1352      H1353   1.397   1_565  S
C1357      C1358   1.422       .  A
C1357      C1362   1.450       .  A
C1358      C1359   1.408       .  A
C1358      H1367   1.083       .  S
C1359      C1360   1.405       .  A
C1359      S1363   1.798       .  S
C1360      C1361   1.387       .  A
C1361      C1362   1.396       .  A
C1361      H1368   1.086       .  S
C1362      S1364   1.807       .  S
S1363      H1366   1.405       .  S
S1364      H1365   1.409       .  S
C1369      C1370   1.408       .  A
C1369      C1374   1.440       .  A
C1370      C1371   1.402       .  A
C1370      H1379   1.080       .  S
C1371      C1372   1.432       .  A
C1371      S1375   1.795       .  S
C1372      C1373   1.413       .  A
C1373      C1374   1.411       .  A
C1373      H1380   1.082       .  S
C1374      S1376   1.812       .  S
S1375      H1378   1.403       .  S
S1376      H1377   1.394       .  S
C1381      C1382   1.413       .  A
C1381      C1386   1.437       .  A
C1382      C1383   1.402       .  A
C1382      H1391   1.071       .  S
C1383      C1384   1.429       .  A
C1383      S1387   1.807       .  S
C1384      C1385   1.424       .  A
C1385      C1386   1.400       .  A
C1385      H1392   1.078       .  S
C1386      S1388   1.816       .  S
S1387      H1390   1.405       .  S
S1388      H1389   1.397       .  S
C1393      C1394   1.429       .  A
C1393      C1398   1.439       .  A
C1394      C1395   1.420       .  A
C1394      H1403   1.081       .  S
C1395      C1396   1.437       .  A
C1395      S1399   1.802       .  S
C1396      C1397   1.414       .  A
C1397      C1398   1.408       .  A
C1397      H1404   1.084       .  S
C1398      S1400   1.792       .  S
S1399      H1402   1.398       .  S
S1400      H1401   1.409       .  S
C1405      C1406   1.430       .  A
C1405      C1410   1.442       .  A
C1406      C1407   1.411       .  A
C1406      H1415   1.078       .  S
C1407      C1408   1.411       .  A
C1407      S1411   1.800       .  S
C1408      C1409   1.393       .  A
C1409      C1410   1.390       .  A
C1409      H1416   1.084       .  S
C1410      S1412   1.801       .  S
S1411      H1414   1.408       .  S
S1412      H1413   1.393       .  S
C1417      C1418   1.416       .  A
C1417      C1422   1.434       .  A
C1418      C1419   1.403       .  A
C1418      H1427   1.074       .  S
C1419      C1420   1.434       .  A
C1419      S1423   1.812       .  S
C1420      C1421   1.419       .  A
C1421      C1422   1.418       .  A
C1421      H1428   1.082       .  S
C1422      S1424   1.806       .  S
S1423      H1426   1.408       .  S
S1424      H1425   1.407       .  S
C1429      C1430   1.421       .  A
C1429      C1434   1.429       .  A
C1430      C1431   1.415       .  A
C1430      H1439   1.082       .  S
C1431      C1432   1.444       .  A
C1431      S1435   1.809       .  S
C1432      C1433   1.417       .  A
C1433      C1434   1.403       .  A
C1433      H1440   1.083       .  S
C1434      S1436   1.811       .  S
S1435      H1438   1.387       .  S
S1436      H1437   1.407       .  S
C1441      C1442   1.394       .  A
C1441      C1446   1.438       .  A
C1442      C1443   1.391       .  A
C1442      H1451   1.073       .  S
C1443      C1444   1.437       .  A
C1443      S1447   1.797   1_565  S
C1444      C1445   1.416       .  A
C1445      C1446   1.406       .  A
C1445      H1452   1.072       .  S
C1446      S1448   1.815       .  S
S1447      H1450   1.408   1_545  S
S1448      H1449   1.402       .  S
C1453      C1454   1.402       .  A
C1453      C1458   1.411       .  A
C1454      C1455   1.413       .  A
C1454      H1463   1.082       .  S
C1455      C1456   1.437       .  A
C1455      S1459   1.809       .  S
C1456      C1457   1.422       .  A
C1457      C1458   1.391       .  A
C1457      H1464   1.082       .  S
C1458      S1460   1.814       .  S
S1459      H1462   1.406       .  S
S1460      H1461   1.408       .  S
C1465      C1466   1.407       .  A
C1465      C1470   1.444       .  A
C1466      C1467   1.398       .  A
C1466      H1475   1.075       .  S
C1467      C1468   1.445       .  A
C1467      S1471   1.827       .  S
C1468      C1469   1.413       .  A
C1469      C1470   1.409       .  A
C1469      H1476   1.084       .  S
C1470      S1472   1.824       .  S
S1471      H1474   1.392       .  S
S1472      H1473   1.391       .  S
C1477      C1478   1.404       .  A
C1477      C1482   1.438       .  A
C1478      C1479   1.397       .  A
C1478      H1487   1.077       .  S
C1479      C1480   1.441       .  A
C1479      S1483   1.823       .  S
C1480      C1481   1.401       .  A
C1481      C1482   1.405       .  A
C1481      H1488   1.069       .  S
C1482      S1484   1.804       .  S
S1483      H1486   1.406       .  S
S1484      H1485   1.407       .  S
C1489      C1490   1.409       .  A
C1489      C1494   1.430       .  A
C1490      C1491   1.390       .  A
C1490      H1499   1.081       .  S
C1491      C1492   1.432       .  A
C1491      S1495   1.813       .  S
C1492      C1493   1.422       .  A
C1493      C1494   1.420       .  A
C1493      H1500   1.077       .  S
C1494      S1496   1.808       .  S
S1495      H1498   1.403       .  S
S1496      H1497   1.406       .  S
C1501      C1502   1.415       .  A
C1501      C1506   1.438       .  A
C1502      C1503   1.394       .  A
C1502      H1511   1.065       .  S
C1503      C1504   1.401       .  A
C1503      S1507   1.805       .  S
C1504      C1505   1.394       .  A
C1505      C1506   1.397       .  A
C1505      H1512   1.084       .  S
C1506      S1508   1.816       .  S
S1507      H1510   1.397       .  S
S1508      H1509   1.407       .  S
C1513      C1514   1.411       .  A
C1513      C1518   1.432       .  A
C1514      C1515   1.409       .  A
C1514      H1523   1.065       .  S
C1515      C1516   1.426       .  A
C1515      S1519   1.808       .  S
C1516      C1517   1.416       .  A
C1517      C1518   1.416       .  A
C1517      H1524   1.077       .  S
C1518      S1520   1.812       .  S
S1519      H1522   1.407       .  S
S1520      H1521   1.406       .  S
C1525      C1526   1.418       .  A
C1525      C1530   1.407       .  A
C1526      C1527   1.411       .  A
C1526      H1535   1.073       .  S
C1527      C1528   1.444       .  A
C1527      S1531   1.809       .  S
C1528      C1529   1.428       .  A
C1529      C1530   1.396       .  A
C1529      H1536   1.076       .  S
C1530      S1532   1.786       .  S
S1531      H1534   1.409       .  S
S1532      H1533   1.408       .  S
C1537      C1538   1.418       .  A
C1537      C1542   1.438       .  A
C1538      C1539   1.395       .  A
C1538      H1547   1.072       .  S
C1539      C1540   1.422       .  A
C1539      S1543   1.808       .  S
C1540      C1541   1.413       .  A
C1541      C1542   1.410       .  A
C1541      H1548   1.077       .  S
C1542      S1544   1.807       .  S
S1543      H1546   1.407       .  S
S1544      H1545   1.408       .  S
C1549      C1550   1.414       .  A
C1549      C1554   1.445       .  A
C1550      C1551   1.399       .  A
C1550      H1559   1.078       .  S
C1551      C1552   1.408       .  A
C1551      S1555   1.799       .  S
C1552      C1553   1.391       .  A
C1553      C1554   1.403       .  A
C1553      H1560   1.084       .  S
C1554      S1556   1.811       .  S
S1555      H1558   1.402       .  S
S1556      H1557   1.407       .  S
C1561      C1562   1.411       .  A
C1561      C1566   1.440       .  A
C1562      C1563   1.419       .  A
C1562      H1571   1.082       .  S
C1563      C1564   1.436       .  A
C1563      S1567   1.808       .  S
C1564      C1565   1.411       .  A
C1565      C1566   1.397       .  A
C1565      H1572   1.077       .  S
C1566      S1568   1.823       .  S
S1567      H1570   1.406       .  S
S1568      H1569   1.394       .  S
C1573      C1574   1.420       .  A
C1573      C1578   1.429       .  A
C1574      C1575   1.415       .  A
C1574      H1583   1.080       .  S
C1575      C1576   1.423       .  A
C1575      S1579   1.791       .  S
C1576      C1577   1.430       .  A
C1577      C1578   1.414       .  A
C1577      H1584   1.080       .  S
C1578      S1580   1.810       .  S
S1579      H1582   1.407       .  S
S1580      H1581   1.408       .  S
C1585      C1586   1.420       .  A
C1585      C1590   1.424       .  A
C1586      C1587   1.417       .  A
C1586      H1595   1.076       .  S
C1587      C1588   1.436       .  A
C1587      S1591   1.816       .  S
C1588      C1589   1.413       .  A
C1589      C1590   1.404       .  A
C1589      H1596   1.069       .  S
C1590      S1592   1.810       .  S
S1591      H1594   1.408       .  S
S1592      H1593   1.406       .  S
C1597      C1598   1.417       .  A
C1597      C1602   1.440       .  A
C1598      C1599   1.393       .  A
C1598      H1607   1.080       .  S
C1599      C1600   1.396       .  A
C1599      S1603   1.787       .  S
C1600      C1601   1.396       .  A
C1601      C1602   1.412       .  A
C1601      H1608   1.083       .  S
C1602      S1604   1.806       .  S
S1603      H1606   1.406       .  S
S1604      H1605   1.407       .  S
C1609      C1610   1.404       .  A
C1609      C1614   1.428       .  A
C1610      C1611   1.414       .  A
C1610      H1619   1.076       .  S
C1611      C1612   1.436       .  A
C1611      S1615   1.796       .  S
C1612      C1613   1.413       .  A
C1613      C1614   1.394       .  A
C1613      H1620   1.076       .  S
C1614      S1616   1.808       .  S
S1615      H1618   1.407       .  S
S1616      H1617   1.386       .  S
C1621      C1622   1.418       .  A
C1621      C1626   1.439       .  A
C1622      C1623   1.403       .  A
C1622      H1631   1.081       .  S
C1623      C1624   1.431       .  A
C1623      S1627   1.797       .  S
C1624      C1625   1.410       .  A
C1625      C1626   1.412       .  A
C1625      H1632   1.077       .  S
C1626      S1628   1.787       .  S
S1627      H1630   1.403       .  S
S1628      H1629   1.407       .  S
C1633      C1634   1.416       .  A
C1633      C1638   1.434       .  A
C1634      C1635   1.425       .  A
C1634      H1643   1.078       .  S
C1635      C1636   1.441       .  A
C1635      S1639   1.802       .  S
C1636      C1637   1.417       .  A
C1637      C1638   1.411       .  A
C1637      H1644   1.081       .  S
C1638      S1640   1.824       .  S
S1639      H1642   1.407       .  S
S1640      H1641   1.387       .  S
C1645      C1646   1.383       .  A
C1645      C1650   1.409       .  A
C1646      C1647   1.378       .  A
C1646      H1655   1.085       .  S
C1647      C1648   1.433       .  A
C1647      S1651   1.794       .  S
C1648      C1649   1.423       .  A
C1649      C1650   1.417       .  A
C1649      H1656   1.081       .  S
C1650      S1652   1.800       .  S
S1651      H1654   1.379       .  S
S1652      H1653   1.406       .  S
