geometry optimzed in LAMMPS
_audit_creation_date              2020-11-30 
_audit_creation_method            'lammps2cif' 
_symmetry_space_group_name_H-M    'P1' 
_symmetry_Int_Tables_number       1 
_symmetry_cell_setting            triclinic 
loop_ 
_symmetry_equiv_pos_as_xyz 
  x,y,z 
_cell_length_a                    35.54134078073895 
_cell_length_b                    35.480217592808174 
_cell_length_c                    35.506474500382666 
_cell_angle_alpha                 89.3231469821367 
_cell_angle_beta                  90.53687851085859 
_cell_angle_gamma                 89.07000177187656 
loop_ 
_atom_site_label 
_atom_site_type_symbol 
_atom_site_fract_x 
_atom_site_fract_y 
_atom_site_fract_z 
_atom_site_charge 
O1          O  0.56843211  0.39629275  0.49221658    -0.79390
O2          O  0.52094102  0.24597853  0.43852018    -0.79410
O3          O  0.57447822  0.27995124  0.54951652    -0.79420
O4          O  0.48760749  0.34523412  0.41381786    -0.79360
O5          O  0.56971231  0.25596656  0.49373110    -0.79480
O6          O  0.51286490  0.38741066  0.45033156    -0.79400
O7          O  0.46553960  0.26991480  0.42482958    -0.79390
O8          O  0.58855090  0.34121944  0.51067744    -0.79420
C9          C  0.59591282  0.37488411  0.49975398     1.10300
C10         C  0.49393093  0.25046543  0.41577591     1.10190
C11         C  0.58836352  0.25961582  0.52355137     1.10320
C12         C  0.50010373  0.37824709  0.41903483     1.10200
O13         O  0.49029881  0.38688145  0.51122230    -0.79390
O14         O  0.51161714  0.24483899  0.55051038    -0.79460
O15         O  0.55170648  0.35386285  0.57930748    -0.79400
O16         O  0.43113261  0.29074817  0.49357622    -0.79380
O17         O  0.46016824  0.23524866  0.49227036    -0.79430
O18         O  0.51412956  0.38247881  0.53779441    -0.79400
O19         O  0.44417492  0.36262311  0.47734113    -0.79360
O20         O  0.49699350  0.30286541  0.56662501    -0.79430
Co21       Co  0.53448250  0.35576388  0.49012752     1.51530
Co22       Co  0.51541047  0.24922894  0.49345888     1.51690
Co23       Co  0.53807770  0.32344130  0.53619159     1.51570
Co24       Co  0.46114919  0.31633709  0.45533912     1.51470
O25         O  0.50775824  0.30664674  0.48973222    -1.41320
C26         C  0.45632580  0.38782819  0.49814177     1.10230
C27         C  0.50059826  0.26830160  0.57515281     1.10320
C28         C  0.52866017  0.38085395  0.57136028     1.10260
C29         C  0.43106410  0.25554219  0.49859147     1.10230
O30         O  0.51188310  0.39993967  0.35724808    -0.79390
O31         O  0.42638896  0.50636003  0.29073516    -0.79410
O32         O  0.48075993  0.47589724  0.40100377    -0.79420
O33         O  0.50231595  0.41067295  0.26771840    -0.79360
O34         O  0.43048775  0.49194735  0.36752175    -0.79480
O35         O  0.55469314  0.40475658  0.30061491    -0.79400
O36         O  0.44639706  0.46103306  0.25294037    -0.79390
O37         O  0.50553069  0.44226730  0.39855700    -0.79420
C38         C  0.50385874  0.40742983  0.38993298     1.10300
C39         C  0.42065121  0.48239160  0.26546326     1.10190
C40         C  0.44521080  0.48143353  0.39871606     1.10320
C41         C  0.52996495  0.39073080  0.27875483     1.10200
O42         O  0.57204945  0.48354162  0.31741454    -0.79390
O43         O  0.48831322  0.54595201  0.37282800    -0.79460
O44         O  0.56073618  0.48887281  0.40079368    -0.79400
O45         O  0.49984199  0.51887776  0.24453514    -0.79380
O46         O  0.49295713  0.54985720  0.29755352    -0.79430
O47         O  0.58197610  0.43463427  0.37743191    -0.79400
O48         O  0.55858380  0.46751064  0.25958811    -0.79360
O49         O  0.53846247  0.51928441  0.39967596    -0.79430
Co50       Co  0.53992147  0.44390202  0.33916916     1.51530
Co51       Co  0.46258453  0.51833342  0.33016919     1.51690
Co52       Co  0.52171090  0.48469677  0.36170409     1.51570
Co53       Co  0.50146897  0.46511329  0.26047733     1.51470
O54         O  0.49288068  0.46894741  0.31814858    -1.41320
C55         C  0.58232635  0.47858617  0.28388233     1.10230
C56         C  0.51450280  0.54628197  0.39747866     1.10320
C57         C  0.58374019  0.46088142  0.40262564     1.10260
C58         C  0.50092269  0.54868762  0.26327639     1.10230
O59         O  0.50750421  0.55695534  0.46035307    -0.79390
O60         O  0.57869542  0.69292101  0.49088622    -0.79410
O61         O  0.46863586  0.67275769  0.42913361    -0.79420
O62         O  0.58784242  0.60774652  0.52613053    -0.79360
O63         O  0.52600367  0.69323307  0.43383469    -0.79480
O64         O  0.55513830  0.55887685  0.51442607    -0.79400
O65         O  0.58127327  0.67356959  0.55010246    -0.79390
O66         O  0.50145354  0.60593922  0.42456512    -0.79420
C67         C  0.50971876  0.57169269  0.42860952     1.10300
C68         C  0.59722982  0.68809175  0.52128893     1.10190
C69         C  0.49654166  0.68873921  0.41441383     1.10320
C70         C  0.58675938  0.57370127  0.51841165     1.10200
O71         O  0.49837246  0.59487800  0.56191576    -0.79390
O72         O  0.46802530  0.71236569  0.48747174    -0.79460
O73         O  0.42838014  0.60895037  0.44844613    -0.79400
O74         O  0.49988938  0.66319727  0.56659562    -0.79380
O75         O  0.52234171  0.71450992  0.54323690    -0.79430
O76         O  0.44568289  0.58766833  0.50474874    -0.79400
O77         O  0.54958293  0.60644544  0.59329643    -0.79360
O78         O  0.44555828  0.65835827  0.50555420    -0.79430
Co79       Co  0.50324965  0.58136794  0.50880649     1.51530
Co80       Co  0.52355769  0.69881553  0.48893196     1.51690
Co81       Co  0.47431918  0.63069185  0.46653134     1.51570
Co82       Co  0.54190670  0.63321927  0.54478493     1.51470
O83         O  0.52125047  0.63964063  0.49326509    -1.41320
C84         C  0.52239543  0.58412826  0.58635222     1.10230
C85         C  0.44116176  0.69332515  0.50063917     1.10320
C86         C  0.42257559  0.58760614  0.47658710     1.10260
C87         C  0.50669531  0.69745290  0.57008904     1.10230
O88         O  0.64601104  0.40976657  0.52265573    -0.79390
O89         O  0.73270219  0.45733697  0.55915130    -0.79410
O90         O  0.72283178  0.39735723  0.44972499    -0.79420
O91         O  0.64584369  0.48864318  0.56746057    -0.79360
O92         O  0.73872972  0.40337732  0.50885809    -0.79480
O93         O  0.59442601  0.46405120  0.54382233    -0.79400
O94         O  0.71470047  0.51618405  0.56147840    -0.79390
O95         O  0.64583302  0.39699865  0.46237506    -0.79420
C96         C  0.63413234  0.39013286  0.49578019     1.10300
C97         C  0.72832371  0.48689577  0.57781999     1.10190
C98         C  0.73536455  0.38327168  0.48025572     1.10320
C99         C  0.61142872  0.47821948  0.57171184     1.10200
O100        O  0.61991999  0.51873038  0.49874631    -0.79390
O101        O  0.76632964  0.45576352  0.45186059    -0.79460
O102        O  0.64377652  0.47172578  0.42587718    -0.79400
O103        O  0.70482759  0.53880388  0.48322914    -0.79380
O104        O  0.75789722  0.51278638  0.50443209    -0.79430
O105        O  0.60329513  0.45365497  0.46683769    -0.79400
O106        O  0.65061290  0.55751660  0.53591410    -0.79360
O107        O  0.71571064  0.47348896  0.42054032    -0.79430
Co108      Co  0.63703047  0.46363620  0.51236514     1.51530
Co109      Co  0.74547001  0.45758064  0.50568809     1.51690
Co110      Co  0.68258703  0.43684465  0.44262193     1.51570
Co111      Co  0.67498253  0.51160541  0.52071976     1.51470
O112        O  0.68948255  0.46432627  0.49235943    -1.41320
C113        C  0.62108014  0.54980300  0.51721828     1.10230
C114        C  0.75053597  0.46848202  0.42182094     1.10320
C115        C  0.61143236  0.46149712  0.43301567     1.10260
C116        C  0.73963575  0.54094662  0.49064232     1.10230
O117        O  0.44715407  0.49353755  0.62679702    -0.79390
O118        O  0.50349200  0.53411554  0.71699380    -0.79410
O119        O  0.43761978  0.42744067  0.70669059    -0.79420
O120        O  0.53363292  0.53746435  0.63357668    -0.79360
O121        O  0.44583604  0.48641830  0.72357649    -0.79480
O122        O  0.50389757  0.52004537  0.58153454    -0.79400
O123        O  0.56230681  0.53241764  0.69989895    -0.79390
O124        O  0.44116340  0.43200132  0.62950647    -0.79420
C125        C  0.42901075  0.46434951  0.61787497     1.10300
C126        C  0.53439525  0.55056291  0.71349370     1.10190
C127        C  0.42489185  0.45832479  0.72014578     1.10320
C128        C  0.52009032  0.54539591  0.60079724     1.10200
O129        O  0.55655207  0.47115079  0.60665558    -0.79390
O130        O  0.49397089  0.42797879  0.75460918    -0.79460
O131        O  0.51873209  0.39961471  0.63384442    -0.79400
O132        O  0.58035172  0.45200278  0.69397472    -0.79380
O133        O  0.55585597  0.47650124  0.74532831    -0.79430
O134        O  0.49873703  0.43914279  0.59023384    -0.79400
O135        O  0.60154021  0.50155083  0.63593717    -0.79360
O136        O  0.51609393  0.39679908  0.70738382    -0.79430
Co137      Co  0.50252980  0.48596526  0.62303207     1.51530
Co138      Co  0.50012423  0.48081282  0.73164656     1.51690
Co139      Co  0.48028478  0.41635133  0.66985610     1.51570
Co140      Co  0.55502035  0.49032263  0.66219994     1.51470
O141        O  0.50569456  0.46643051  0.67597296    -1.41320
C142        C  0.59004633  0.48381812  0.60709188     1.10230
C143        C  0.50583407  0.39717971  0.74081493     1.10320
C144        C  0.51512856  0.40798014  0.59962438     1.10260
C145        C  0.58359477  0.46141327  0.72811471     1.10230
O146        O  0.43695503  0.44805626  0.52201177    -0.79390
O147        O  0.26969557  0.48299859  0.45513478    -0.79410
O148        O  0.32390576  0.40518398  0.48675771    -0.79420
O149        O  0.39091546  0.46233830  0.43070761    -0.79360
O150        O  0.27423868  0.42973601  0.51171216    -0.79480
O151        O  0.43047709  0.49553186  0.46294891    -0.79400
O152        O  0.31764905  0.45510048  0.43088580    -0.79390
O153        O  0.39688524  0.41383633  0.49205493    -0.79420
C154        C  0.42945413  0.41820538  0.50474474     1.10300
C155        C  0.28373973  0.46413799  0.42829383     1.10190
C156        C  0.29034376  0.40185023  0.49593654     1.10320
C157        C  0.42223321  0.47751622  0.43305229     1.10200
O158        O  0.38319921  0.54660740  0.50899642    -0.79390
O159        O  0.30411025  0.48769357  0.56282000    -0.79460
O160        O  0.39086372  0.43541755  0.57094757    -0.79400
O161        O  0.30924752  0.53752771  0.44678034    -0.79380
O162        O  0.30078360  0.53898092  0.50736856    -0.79430
O163        O  0.39213310  0.49682795  0.56972269    -0.79400
O164        O  0.38309397  0.54299659  0.44799888    -0.79360
O165        O  0.31609183  0.42762091  0.56625358    -0.79430
Co166      Co  0.40562200  0.49629124  0.51549964     1.51530
Co167      Co  0.29216482  0.48486341  0.50914887     1.51690
Co168      Co  0.35641534  0.42390948  0.52613828     1.51570
Co169      Co  0.35006080  0.49675858  0.44325682     1.51470
O170        O  0.35114634  0.47648994  0.49966778    -1.41320
C171        C  0.39175072  0.56064462  0.47765555     1.10230
C172        C  0.30337592  0.45743437  0.58130941     1.10320
C173        C  0.40019535  0.46607766  0.58659106     1.10260
C174        C  0.29998347  0.55563722  0.47600315     1.10230
O175        O  0.90977516  0.52142338  0.01597930    -0.79390
O176        O  0.75935197  0.45773618  0.05049637    -0.79410
O177        O  0.82787890  0.53051484  0.01682081    -0.79420
O178        O  0.89090145  0.44700219  0.06944949    -0.79360
O179        O  0.76981959  0.51919001  0.00033411    -0.79480
O180        O  0.91390370  0.49738824  0.04159675    -0.79400
O181        O  0.81480972  0.46521596  0.07582659    -0.79390
O182        O  0.88304070  0.54996614  0.96643142    -0.79420
C183        C  0.90930464  0.54838082  0.99169877     1.10300
C184        C  0.77968656  0.46540362  0.07888646     1.10190
C185        C  0.79417487  0.54134814  0.01325027     1.10320
C186        C  0.91662846  0.47161482  0.06628571     1.10200
O187        O  0.90836470  0.43551615  0.00097814    -0.79390
O188        O  0.77717583  0.46776810  0.94037553    -0.79460
O189        O  0.87532487  0.48241546  0.92788282    -0.79400
O190        O  0.79719913  0.39367230  0.04074952    -0.79380
O191        O  0.76900908  0.40824128  0.98698809    -0.79430
O192        O  0.91051207  0.46279076  0.97289766    -0.79400
O193        O  0.87247898  0.38903029  0.02130621    -0.79360
O194        O  0.80992276  0.51993255  0.93668467    -0.79430
Co195      Co  0.87268725  0.48084186  0.01178792     1.51530
Co196      Co  0.77261068  0.46295018  0.99477016     1.51690
Co197      Co  0.85090036  0.50415969  0.97386753     1.51570
Co198      Co  0.84177652  0.42677153  0.04669047     1.51470
O199        O  0.83032145  0.45436291  0.99503321    -1.41320
C200        C  0.90323408  0.40020639  0.00772723     1.10230
C201        C  0.78733689  0.49643803  0.92202892     1.10320
C202        C  0.90688720  0.46973765  0.93789128     1.10260
C203        C  0.77840030  0.38421769  0.01193197     1.10230
O204        O  0.93964153  0.46182867  0.87734598    -0.79390
O205        O  0.05774836  0.54387456  0.79647467    -0.79410
O206        O  0.99374425  0.53177686  0.88524971    -0.79420
O207        O  0.94448066  0.49031955  0.78520969    -0.79360
O208        O  0.05430998  0.53886848  0.87365928    -0.79480
O209        O  0.93964888  0.43226761  0.80392145    -0.79400
O210        O  0.99798722  0.54197723  0.77986708    -0.79390
O211        O  0.97222326  0.47105314  0.92962485    -0.79420
C212        C  0.94059410  0.46664231  0.91365942     1.10300
C213        C  0.02825704  0.55974741  0.78226120     1.10190
C214        C  0.02370974  0.55104039  0.88845744     1.10320
C215        C  0.92518392  0.46113952  0.78798468     1.10200
O216        O  0.01503229  0.40402277  0.81197224    -0.79390
O217        O  0.08092244  0.45840665  0.86821243    -0.79460
O218        O  0.00803440  0.41590308  0.89295017    -0.79400
O219        O  0.05117865  0.48872293  0.74929884    -0.79380
O220        O  0.08073438  0.46226560  0.79614905    -0.79430
O221        O  0.96038190  0.38917007  0.86447271    -0.79400
O222        O  0.99710507  0.43196366  0.75867757    -0.79360
O223        O  0.04705145  0.47889590  0.91394060    -0.79430
Co224      Co  0.98061323  0.43444191  0.84327947     1.51530
Co225      Co  0.06547375  0.49927854  0.83338982     1.51690
Co226      Co  0.99890550  0.47510023  0.88413227     1.51570
Co227      Co  0.99813277  0.48752816  0.77230040     1.51470
O228        O  0.01249323  0.47936347  0.82881086    -1.41320
C229        C  0.00944946  0.40292463  0.77674426     1.10230
C230        C  0.07735624  0.46412881  0.90250799     1.10320
C231        C  0.98518167  0.38774150  0.89013183     1.10260
C232        C  0.08091892  0.47324197  0.76281738     1.10230
O233        O  0.08684209  0.43655901  0.01746657    -0.79390
O234        O  0.24130289  0.46262020  0.06101903    -0.79410
O235        O  0.20130775  0.40719220  0.95512244    -0.79420
O236        O  0.13882860  0.51034243  0.07614247    -0.79360
O237        O  0.22753051  0.41282520  0.01014244    -0.79480
O238        O  0.14187473  0.45038844  0.06580190    -0.79400
O239        O  0.21717318  0.51819227  0.07543912    -0.79390
O240        O  0.13259413  0.40470083  0.99083054    -0.79420
C241        C  0.09831396  0.40675574  0.00297762     1.10300
C242        C  0.23380331  0.48754222  0.08477019     1.10190
C243        C  0.21994562  0.39293218  0.98240943     1.10320
C244        C  0.12769016  0.47711355  0.08409451     1.10200
O245        O  0.09868296  0.50531256  0.02028313    -0.79390
O246        O  0.24578082  0.46532455  0.94870026    -0.79460
O247        O  0.13421105  0.43169553  0.92047026    -0.79400
O248        O  0.21015957  0.55367427  0.00120655    -0.79380
O249        O  0.26152667  0.51856609  0.00498601    -0.79430
O250        O  0.11113236  0.47463357  0.95871620    -0.79400
O251        O  0.13908283  0.54548343  0.00056321    -0.79360
O252        O  0.18935222  0.48384007  0.92955508    -0.79430
Co253      Co  0.13149339  0.46059091  0.01232569     1.51530
Co254      Co  0.24029987  0.46564528  0.00615249     1.51690
Co255      Co  0.16276025  0.44838223  0.96285530     1.51570
Co256      Co  0.17712242  0.52847271  0.03634081     1.51470
O257        O  0.18365926  0.47905915  0.00689662    -1.41320
C258        C  0.10591288  0.53668835  0.00627676     1.10230
C259        C  0.22336857  0.47638189  0.92230878     1.10320
C260        C  0.10872234  0.45579572  0.92820242     1.10260
C261        C  0.24500053  0.54994563  0.99815384     1.10230
O262        O  0.94558659  0.45662945  0.12218655    -0.79390
O263        O  0.99623827  0.39932407  0.17800231    -0.79410
O264        O  0.01652580  0.42199527  0.10067940    -0.79420
O265        O  0.95465446  0.47778889  0.24389940    -0.79360
O266        O  0.05720838  0.38695710  0.13307321    -0.79480
O267        O  0.93133840  0.45607510  0.19250252    -0.79400
O268        O  0.00802911  0.41919570  0.23553017    -0.79390
O269        O  0.98043576  0.48355032  0.08078734    -0.79420
C270        C  0.94943147  0.46915519  0.08983007     1.10300
C271        C  0.99730073  0.39338138  0.21319904     1.10190
C272        C  0.03529047  0.39091011  0.10498725     1.10320
C273        C  0.92739300  0.46353960  0.22640974     1.10200
O274        O  0.95238295  0.53667892  0.19812053    -0.79390
O275        O  0.08226162  0.45999924  0.13303514    -0.79460
O276        O  0.02646007  0.53424476  0.11833678    -0.79400
O277        O  0.06292520  0.47846711  0.22006970    -0.79380
O278        O  0.07040587  0.42162729  0.19987509    -0.79430
O279        O  0.96455809  0.53810217  0.12210661    -0.79400
O280        O  0.00958436  0.53017863  0.22239404    -0.79360
O281        O  0.06068566  0.47963177  0.07751892    -0.79430
Co282      Co  0.95068659  0.49539432  0.15932708     1.51530
Co283      Co  0.03567344  0.43081975  0.15569408     1.51690
Co284      Co  0.02465745  0.47820157  0.11633687     1.51570
Co285      Co  0.00904960  0.47616583  0.22691682     1.51470
O286        O  0.00292702  0.47556950  0.16915097    -1.41320
C287        C  0.98130123  0.55047839  0.21408278     1.10230
C288        C  0.08871724  0.47217558  0.09910993     1.10320
C289        C  0.99555469  0.55108210  0.10947366     1.10260
C290        C  0.08320871  0.44964068  0.21702099     1.10230
O291        O  0.96449486  0.38271819  0.98698051    -0.79390
O292        O  0.01431408  0.22759487  0.04239442    -0.79410
O293        O  0.92783749  0.26598882  0.00819617    -0.79420
O294        O  0.05442571  0.33330207  0.07776361    -0.79360
O295        O  0.95898156  0.21818042  0.98593305    -0.79480
O296        O  0.00717252  0.36367165  0.04947319    -0.79400
O297        O  0.99869091  0.28200363  0.06806858    -0.79390
O298        O  0.92871756  0.33909881  0.00867682    -0.79420
C299        C  0.93352749  0.37301119  0.00084844     1.10300
C300        C  0.00478254  0.24690783  0.07102125     1.10190
C301        C  0.92911527  0.23202691  0.99966663     1.10320
C302        C  0.03187391  0.36109401  0.07668211     1.10200
O303        O  0.03723560  0.39499357  0.98924433    -0.79390
O304        O  0.00997695  0.24943248  0.93288744    -0.79460
O305        O  0.95476974  0.34264408  0.92987537    -0.79400
O306        O  0.07219030  0.27183196  0.03849691    -0.79380
O307        O  0.06388209  0.25440413  0.98131450    -0.79430
O308        O  0.01593011  0.34806023  0.93620005    -0.79400
O309        O  0.07093982  0.34400190  0.00489007    -0.79360
O310        O  0.95029986  0.26568903  0.92827595    -0.79430
Co311      Co  0.01188178  0.35074457  0.99148304     1.51530
Co312      Co  0.01118150  0.24094631  0.98631227     1.51690
Co313      Co  0.94333979  0.30282656  0.97053821     1.51570
Co314      Co  0.03123805  0.31158505  0.03510767     1.51470
O315        O  0.99626440  0.29677600  0.99259417    -1.41320
C316        C  0.06867870  0.37986165  0.99728617     1.10230
C317        C  0.98064679  0.25382709  0.91350048     1.10320
C318        C  0.98587303  0.35620981  0.91841146     1.10260
C319        C  0.08500342  0.25652884  0.00937152     1.10230
O320        O  0.97336824  0.54899719  0.98894687    -0.79390
O321        O  0.01197145  0.69609559  0.92827661    -0.79410
O322        O  0.95412452  0.67264092  0.03906737    -0.79420
O323        O  0.05769334  0.59575724  0.92613320    -0.79360
O324        O  0.95830031  0.69347080  0.98141366    -0.79480
O325        O  0.99653031  0.59374228  0.93384162    -0.79400
O326        O  0.06970466  0.67298336  0.92423497    -0.79390
O327        O  0.94657179  0.60388702  0.00298303    -0.79420
C328        C  0.94399914  0.56910595  0.99240213     1.10300
C329        C  0.04156670  0.69070103  0.90964261     1.10190
C330        C  0.93953387  0.68964257  0.01104307     1.10320
C331        C  0.02546641  0.58368980  0.91552244     1.10200
O332        O  0.04640020  0.55555699  0.98392315    -0.79390
O333        O  0.01409463  0.71246960  0.03901051    -0.79460
O334        O  0.97014651  0.60727918  0.07821418    -0.79400
O335        O  0.09388129  0.66803992  0.00383047    -0.79380
O336        O  0.06775655  0.71929418  0.98166387    -0.79430
O337        O  0.01384425  0.57655635  0.04781333    -0.79400
O338        O  0.08401719  0.59730189  0.00557032    -0.79360
O339        O  0.02818841  0.65665703  0.06449966    -0.79430
Co340      Co  0.00324446  0.59092624  0.98966380     1.51530
Co341      Co  0.01306247  0.70154449  0.98295613     1.51690
Co342      Co  0.99095509  0.63010501  0.03313678     1.51570
Co343      Co  0.07369582  0.63414063  0.96635790     1.51470
O344        O  0.02263939  0.64418121  0.98844011    -1.41320
C345        C  0.07715064  0.56388195  0.99878031     1.10230
C346        C  0.02487270  0.69221690  0.06721993     1.10320
C347        C  0.99357781  0.58011311  0.07784596     1.10260
C348        C  0.09626232  0.70213836  0.99582243     1.10230
O349        O  0.59449038  0.84674802  0.98277733    -0.79390
O350        O  0.47462735  0.76487366  0.05881569    -0.79410
O351        O  0.51817648  0.87419444  0.02757730    -0.79420
O352        O  0.57246905  0.71980667  0.98725895    -0.79360
O353        O  0.50925198  0.82886298  0.06760345    -0.79480
O354        O  0.60284154  0.77355325  0.98936922    -0.79400
O355        O  0.52508245  0.72924810  0.04835792    -0.79390
O356        O  0.54553813  0.88134805  0.99642810    -0.79420
C357        C  0.58093071  0.87829923  0.99065885     1.10300
C358        C  0.49985972  0.74153151  0.07039969     1.10190
C359        C  0.51638272  0.86284462  0.06233455     1.10320
C360        C  0.60234120  0.73819019  0.99127263     1.10200
O361        O  0.56119823  0.76320571  0.92240144    -0.79390
O362        O  0.43638032  0.83343182  0.04209559    -0.79460
O363        O  0.50022943  0.88019617  0.94612059    -0.79400
O364        O  0.46284755  0.73152202  0.99867534    -0.79380
O365        O  0.45012049  0.78872334  0.98194643    -0.79430
O366        O  0.54188174  0.84161612  0.91926627    -0.79400
O367        O  0.50836421  0.73703226  0.93798754    -0.79360
O368        O  0.45758532  0.86139077  0.99099018    -0.79430
Co369      Co  0.56966470  0.80494606  0.95803911     1.51530
Co370      Co  0.48193962  0.80864506  0.02424707     1.51690
Co371      Co  0.50903290  0.84088324  0.97914490     1.51570
Co372      Co  0.51830254  0.73441333  0.99317218     1.51470
O373        O  0.52873112  0.79227793  0.99983916    -1.41320
C374        C  0.53253486  0.74488422  0.91358294     1.10230
C375        C  0.43262683  0.85826945  0.01629562     1.10320
C376        C  0.52031829  0.87151884  0.91860622     1.10260
C377        C  0.43953015  0.75536210  0.98603554     1.10230
O378        O  0.56400961  0.00039806  0.88010442    -0.79390
O379        O  0.52394244  0.03162399  0.76659726    -0.79410
O380        O  0.59756145  0.96394364  0.80552336    -0.79420
O381        O  0.50271041  0.04237254  0.87679010    -0.79360
O382        O  0.56702397  0.96865022  0.75102930    -0.79480
O383        O  0.50351359  0.00272865  0.92425269    -0.79400
O384        O  0.47441694  0.04465084  0.80172567    -0.79390
O385        O  0.58677509  0.94390975  0.87910616    -0.79420
C386        C  0.58780025  0.97651382  0.89214599     1.10300
C387        C  0.49930709  0.05482737  0.77810652     1.10190
C388        C  0.59665131  0.97104951  0.77071836     1.10320
C389        C  0.50316476  0.03647769  0.91302165     1.10200
O390        O  0.45485861  0.96665856  0.88124454    -0.79390
O391        O  0.50019636  0.92302016  0.75747636    -0.79460
O392        O  0.53065930  0.89304233  0.85579184    -0.79400
O393        O  0.44317881  0.96793636  0.81200478    -0.79380
O394        O  0.45785665  0.98907232  0.75748655    -0.79430
O395        O  0.52099657  0.93380100  0.90115560    -0.79400
O396        O  0.43107038  0.02182700  0.86423158    -0.79360
O397        O  0.55375271  0.90295304  0.78206794    -0.79430
Co398      Co  0.51069564  0.98273081  0.87594678     1.51530
Co399      Co  0.51292894  0.97744123  0.76323776     1.51690
Co400      Co  0.56298674  0.92953262  0.82988631     1.51570
Co401      Co  0.47632276  0.00285628  0.84095834     1.51470
O402        O  0.52015944  0.97031315  0.82174592    -1.41320
C403        C  0.42746755  0.99106427  0.88227601     1.10230
C404        C  0.52391273  0.89672559  0.76390062     1.10320
C405        C  0.52287172  0.90025078  0.88953109     1.10260
C406        C  0.43331907  0.97702458  0.77932013     1.10230
O407        O  0.48632877  0.05276287  0.97345805    -0.79390
O408        O  0.56485607  0.17701978  0.99626239    -0.79410
O409        O  0.45123070  0.15387035  0.91796919    -0.79420
O410        O  0.56608462  0.10182582  0.00228844    -0.79360
O411        O  0.50566732  0.17750006  0.93838232    -0.79480
O412        O  0.53683346  0.05468378  0.02742850    -0.79400
O413        O  0.58583016  0.15525682  0.05244724    -0.79390
O414        O  0.50369679  0.10021850  0.93768545    -0.79420
C415        C  0.49913863  0.06515207  0.94252037     1.10300
C416        C  0.59121199  0.17349907  0.02173933     1.10190
C417        C  0.47982527  0.17432392  0.91254223     1.10320
C418        C  0.56513837  0.06730638  0.00993935     1.10200
O419        O  0.47936291  0.08982613  0.07730606    -0.79390
O420        O  0.45499847  0.20948647  0.99477727    -0.79460
O421        O  0.42803973  0.09066365  0.96188035    -0.79400
O422        O  0.51505564  0.16022154  0.08073031    -0.79380
O423        O  0.50975514  0.21079198  0.04692561    -0.79430
O424        O  0.42831354  0.08329440  0.02247745    -0.79400
O425        O  0.53970244  0.09221184  0.08321159    -0.79360
O426        O  0.42396111  0.15812956  0.98864630    -0.79430
Co427      Co  0.48269025  0.07353346  0.02527536     1.51530
Co428      Co  0.50709878  0.18661087  0.99600881     1.51690
Co429      Co  0.46600577  0.13241322  0.96471343     1.51570
Co430      Co  0.53912834  0.13300231  0.04014470     1.51470
O431        O  0.49128007  0.12881773  0.01360572    -1.41320
C432        C  0.50807342  0.08072623  0.09586636     1.10230
C433        C  0.42427623  0.19252388  0.99492461     1.10320
C434        C  0.41499111  0.07467027  0.99104388     1.10260
C435        C  0.50996248  0.19486384  0.07864569     1.10230
O436        O  0.50008481  0.91984168  0.09690664    -0.79390
O437        O  0.45484206  0.97495506  0.24742117    -0.79410
O438        O  0.48665681  0.89271664  0.18229708    -0.79420
O439        O  0.42638030  0.97151067  0.12202917    -0.79360
O440        O  0.50658851  0.91593701  0.23638771    -0.79480
O441        O  0.47034123  0.99014059  0.08461049    -0.79400
O442        O  0.42043698  0.96429917  0.19688689    -0.79390
O443        O  0.53882548  0.87915785  0.12494473    -0.79420
C444        C  0.51959082  0.88858496  0.09573974     1.10300
C445        C  0.42344767  0.96714904  0.23203027     1.10190
C446        C  0.49360900  0.88881443  0.21715172     1.10320
C447        C  0.43682872  0.97972517  0.08937424     1.10200
O448        O  0.52812973  0.02567533  0.13015236    -0.79390
O449        O  0.56054957  0.97247798  0.21278596    -0.79460
O450        O  0.56788765  0.94788667  0.12687671    -0.79400
O451        O  0.45344334  0.03747442  0.20696116    -0.79380
O452        O  0.51222105  0.02709250  0.22208423    -0.79430
O453        O  0.54225326  0.97483222  0.07629271    -0.79400
O454        O  0.46823559  0.04197597  0.13190018    -0.79360
O455        O  0.56529904  0.91504988  0.19263917    -0.79430
Co456      Co  0.51361332  0.97325472  0.11853405     1.51530
Co457      Co  0.50791931  0.97229034  0.22631778     1.51690
Co458      Co  0.52288976  0.92256015  0.15376931     1.51570
Co459      Co  0.44506574  0.00110393  0.16464473     1.51470
O460        O  0.49340930  0.96916773  0.17070458    -1.41320
C461        C  0.50233744  0.04970334  0.12348712     1.10230
C462        C  0.58039109  0.94363880  0.20760325     1.10320
C463        C  0.57057479  0.96045384  0.09308571     1.10260
C464        C  0.48464098  0.04940928  0.21888660     1.10230
O465        O  0.39670053  0.90042863  0.98073895    -0.79390
O466        O  0.26287737  0.97483100  0.94625902    -0.79410
O467        O  0.31910801  0.89316536  0.02258549    -0.79420
O468        O  0.37478666  0.01138570  0.91798382    -0.79360
O469        O  0.27002238  0.91828656  0.99517405    -0.79480
O470        O  0.39209324  0.95261342  0.92240992    -0.79400
O471        O  0.31505040  0.97266746  0.91749826    -0.79390
O472        O  0.38708913  0.90056912  0.04171342    -0.79420
C473        C  0.40195531  0.88565574  0.01302891     1.10300
C474        C  0.28045163  0.96991345  0.91626692     1.10190
C475        C  0.28792923  0.88976897  0.00667869     1.10320
C476        C  0.39479268  0.98412852  0.90611884     1.10200
O477        O  0.41489219  0.01078618  0.97465898    -0.79390
O478        O  0.28860778  0.96839760  0.05794301    -0.79460
O479        O  0.37632906  0.97990676  0.05860303    -0.79400
O480        O  0.30698721  0.04642324  0.94199918    -0.79380
O481        O  0.28941988  0.02909617  0.99964353    -0.79430
O482        O  0.42503294  0.95796445  0.02843454    -0.79400
O483        O  0.36181185  0.03536515  0.99444161    -0.79360
O484        O  0.32968938  0.92806455  0.08627783    -0.79430
Co485      Co  0.40333033  0.95508089  0.97654750     1.51530
Co486      Co  0.28590140  0.97126653  0.99862840     1.51690
Co487      Co  0.34477027  0.93902825  0.03786881     1.51570
Co488      Co  0.33528161  0.00326717  0.95784211     1.51470
O489        O  0.34626694  0.95812035  0.98622306    -1.41320
C490        C  0.39621822  0.03861478  0.98747659     1.10230
C491        C  0.30108627  0.94983274  0.08754421     1.10320
C492        C  0.41153285  0.97384213  0.05694103     1.10260
C493        C  0.28956153  0.05374198  0.97232365     1.10230
O494        O  0.63923719  0.90237813  0.01003650    -0.79390
O495        O  0.71914101  0.01670415  0.92654411    -0.79410
O496        O  0.60656095  0.97406150  0.95723088    -0.79420
O497        O  0.73406505  0.90536021  0.98918103    -0.79360
O498        O  0.64368547  0.00276052  0.91674727    -0.79480
O499        O  0.70288837  0.90274110  0.04250833    -0.79400
O500        O  0.74261827  0.95903600  0.93433452    -0.79390
O501        O  0.60219567  0.94308950  0.98504045    -0.79420
C502        C  0.60782928  0.90926451  0.99564559     1.10300
C503        C  0.73629635  0.98787458  0.91398320     1.10190
C504        C  0.61388499  0.98500674  0.92337074     1.10320
C505        C  0.72401764  0.88699648  0.01804945     1.10200
O506        O  0.69335270  0.98400044  0.06068705    -0.79390
O507        O  0.62445781  0.04770332  0.98032096    -0.79460
O508        O  0.60238559  0.98308709  0.04399744    -0.79400
O509        O  0.75581121  0.01463757  0.98977143    -0.79380
O510        O  0.70138264  0.04136372  0.00229064    -0.79430
O511        O  0.63335731  0.93810550  0.07677291    -0.79400
O512        O  0.74746981  0.95954173  0.04563200    -0.79360
O513        O  0.59745768  0.01092782  0.02170274    -0.79430
Co514      Co  0.66556848  0.94545815  0.03185137     1.51530
Co515      Co  0.67372098  0.02107911  0.95940744     1.51690
Co516      Co  0.63935674  0.98203199  0.00451455     1.51570
Co517      Co  0.74123823  0.96016127  0.98921148     1.51470
O518        O  0.68362550  0.96591568  0.98126294    -1.41320
C519        C  0.72644706  0.97422395  0.07008996     1.10230
C520        C  0.59729665  0.04146468  0.00329810     1.10320
C521        C  0.60470302  0.96043634  0.07223940     1.10260
C522        C  0.73665371  0.04238605  0.00155703     1.10230
O523        O  0.02813135  0.88263984  0.53981595    -0.79390
O524        O  0.07413717  0.74043952  0.49273489    -0.79410
O525        O  0.03121774  0.79789520  0.55360418    -0.79420
O526        O  0.08591092  0.83852421  0.44504227    -0.79360
O527        O  0.01763668  0.73944575  0.54438324    -0.79480
O528        O  0.08014324  0.83562474  0.50608827    -0.79400
O529        O  0.08380702  0.76160194  0.43519561    -0.79390
O530        O  0.97860944  0.85140252  0.56315629    -0.79420
C531        C  0.00303128  0.87839464  0.56535249     1.10300
C532        C  0.09621095  0.74714859  0.46594751     1.10190
C533        C  0.02891764  0.76458808  0.56602740     1.10320
C534        C  0.09789426  0.84736883  0.47768412     1.10200
O535        O  0.03179246  0.88255714  0.45489289    -0.79390
O536        O  0.96375640  0.73461952  0.48674439    -0.79460
O537        O  0.94050318  0.82962687  0.49235186    -0.79400
O538        O  0.00813864  0.77087088  0.40272378    -0.79380
O539        O  0.02135623  0.71951598  0.43530293    -0.79430
O540        O  0.97679734  0.87487005  0.48941060    -0.79400
O541        O  0.00993172  0.84392138  0.41245278    -0.79360
O542        O  0.95408959  0.77238707  0.53531331    -0.79430
Co543      Co  0.02564650  0.84621747  0.49996248     1.51530
Co544      Co  0.01912673  0.73807373  0.48863252     1.51690
Co545      Co  0.98839039  0.81517696  0.52045031     1.51570
Co546      Co  0.04487492  0.80315951  0.42681924     1.51470
O547        O  0.01463051  0.79514518  0.47474330    -1.41320
C548        C  0.01644333  0.87681566  0.42262031     1.10230
C549        C  0.94240909  0.74717071  0.51246427     1.10320
C550        C  0.94386454  0.86378409  0.48653583     1.10260
C551        C  0.01075088  0.73570810  0.40505189     1.10230
O552        O  0.88083264  0.88635737  0.46861940    -0.79390
O553        O  0.80689912  0.01496787  0.55557697    -0.79410
O554        O  0.92787628  0.97279227  0.55137971    -0.79420
O555        O  0.78378689  0.90172314  0.50783845    -0.79360
O556        O  0.87311615  0.99081075  0.57015915    -0.79480
O557        O  0.80472235  0.89067127  0.45145120    -0.79400
O558        O  0.78795596  0.95713489  0.55493564    -0.79390
O559        O  0.91988801  0.92400654  0.49760382    -0.79420
C560        C  0.91274987  0.89234796  0.48360882     1.10300
C561        C  0.79199769  0.98730538  0.57218745     1.10190
C562        C  0.90818120  0.98531962  0.57775786     1.10320
C563        C  0.78964362  0.87931477  0.48147594     1.10200
O564        O  0.81495458  0.96290877  0.41603749    -0.79390
O565        O  0.87082614  0.05510108  0.53047923    -0.79460
O566        O  0.91429443  0.98757503  0.47224575    -0.79400
O567        O  0.76734070  0.01261293  0.49643620    -0.79380
O568        O  0.82118377  0.03367435  0.47621601    -0.79430
O569        O  0.88961364  0.95437058  0.42568260    -0.79400
O570        O  0.76218638  0.95231901  0.44587229    -0.79360
O571        O  0.90499114  0.01561146  0.49563999    -0.79430
Co572      Co  0.84682273  0.92660861  0.44433619     1.51530
Co573      Co  0.84862272  0.00828592  0.51803255     1.51690
Co574      Co  0.88656748  0.96410258  0.51766722     1.51570
Co575      Co  0.77914233  0.95619477  0.50082065     1.51470
O576        O  0.83660826  0.95836319  0.49201654    -1.41320
C577        C  0.77977053  0.95951673  0.41558343     1.10230
C578        C  0.89941763  0.04887007  0.51006794     1.10320
C579        C  0.91425454  0.97606545  0.43777834     1.10260
C580        C  0.78688034  0.03952394  0.48339166     1.10230
O581        O  0.12357518  0.90494659  0.50549388    -0.79390
O582        O  0.25901360  0.98589011  0.54743394    -0.79410
O583        O  0.19846648  0.89960394  0.51161383    -0.79420
O584        O  0.14042531  0.96085746  0.57497494    -0.79360
O585        O  0.25144944  0.92737428  0.49597848    -0.79480
O586        O  0.09515984  0.97123433  0.53543281    -0.79400
O587        O  0.20989769  0.97417279  0.58262175    -0.79390
O588        O  0.14811084  0.88482247  0.45370521    -0.79420
C589        C  0.12537576  0.87904737  0.48011158     1.10300
C590        C  0.24472745  0.97670241  0.57872156     1.10190
C591        C  0.23370431  0.89828557  0.50714911     1.10320
C592        C  0.10627198  0.96143305  0.56772864     1.10200
O593        O  0.12284138  0.01808276  0.47854922    -0.79390
O594        O  0.22356772  0.98468319  0.44109854    -0.79460
O595        O  0.13711209  0.96032003  0.43303472    -0.79400
O596        O  0.20336465  0.04804137  0.54765845    -0.79380
O597        O  0.22892198  0.03795073  0.49212683    -0.79430
O598        O  0.08442908  0.95376818  0.46362837    -0.79400
O599        O  0.12594594  0.03680224  0.53707216    -0.79360
O600        O  0.20857258  0.92619514  0.43748380    -0.79430
Co601      Co  0.12813324  0.96301950  0.49156235     1.51530
Co602      Co  0.23684999  0.98324273  0.49478241     1.51690
Co603      Co  0.16815321  0.93038816  0.47541875     1.51570
Co604      Co  0.17035581  0.00311365  0.55726412     1.51470
O605        O  0.18141552  0.97491590  0.50859798    -1.41320
C606        C  0.11257520  0.04107098  0.50359442     1.10230
C607        C  0.22219794  0.95503758  0.42244640     1.10320
C608        C  0.10079782  0.96283802  0.43351936     1.10260
C609        C  0.22119622  0.05959477  0.51895608     1.10230
O610        O  0.94363087  0.08169224  0.47333629    -0.79390
O611        O  0.99905535  0.20758115  0.44208082    -0.79410
O612        O  0.93407281  0.15446478  0.50420404    -0.79420
O613        O  0.05973761  0.10341020  0.42173961    -0.79360
O614        O  0.95550762  0.20986821  0.50132012    -0.79480
O615        O  0.99882009  0.09589802  0.42095975    -0.79400
O616        O  0.04177722  0.16966672  0.42124705    -0.79390
O617        O  0.94171231  0.09279818  0.53395744    -0.79420
C618        C  0.92810473  0.07715945  0.50507539     1.10300
C619        C  0.01748575  0.19491060  0.41512373     1.10190
C620        C  0.92802851  0.18858327  0.49966235     1.10320
C621        C  0.03001784  0.09191217  0.40535483     1.10200
O622        O  0.05441533  0.05819131  0.47224316    -0.79390
O623        O  0.01575927  0.18620232  0.55294994    -0.79460
O624        O  0.01793049  0.10287199  0.55719321    -0.79400
O625        O  0.10492851  0.15756654  0.45722070    -0.79380
O626        O  0.06779925  0.19675980  0.49032481    -0.79430
O627        O  0.00049456  0.05421723  0.52359969    -0.79400
O628        O  0.07995728  0.10277053  0.50455595    -0.79360
O629        O  0.96525303  0.15688899  0.57560685    -0.79430
Co630      Co  0.99920319  0.07615275  0.47209472     1.51530
Co631      Co  0.00922883  0.19272346  0.49533053     1.51690
Co632      Co  0.97919546  0.13385136  0.52999754     1.51570
Co633      Co  0.05712412  0.13901545  0.46591352     1.51470
O634        O  0.00497059  0.13224448  0.48289689    -1.41320
C635        C  0.08091236  0.06878517  0.49386216     1.10230
C636        C  0.99201833  0.18003256  0.57979885     1.10320
C637        C  0.01181599  0.06777261  0.55442364     1.10260
C638        C  0.10039676  0.18705323  0.47679249     1.10230
O639        O  0.03143432  0.92974289  0.38604432    -0.79390
O640        O  0.06256022  0.95825155  0.27519629    -0.79410
O641        O  0.95657724  0.89947902  0.30801705    -0.79420
O642        O  0.07733640  0.98160900  0.36974777    -0.79360
O643        O  0.00915744  0.90926464  0.27676261    -0.79480
O644        O  0.04713143  0.99599517  0.42080445    -0.79400
O645        O  0.07279643  0.01436767  0.29560928    -0.79390
O646        O  0.97272868  0.91167619  0.38399797    -0.79420
C647        C  0.00640056  0.90751391  0.39622488     1.10300
C648        C  0.08421729  0.98553511  0.27862551     1.10190
C649        C  0.98398496  0.88766964  0.28799059     1.10320
C650        C  0.07650616  0.98296826  0.40626295     1.10200
O651        O  0.00452127  0.03929982  0.37760640    -0.79390
O652        O  0.95213189  0.96272984  0.25281844    -0.79460
O653        O  0.93575034  0.98713891  0.37609323    -0.79400
O654        O  0.00060955  0.04561979  0.30810330    -0.79380
O655        O  0.00856639  0.01840099  0.25350326    -0.79430
O656        O  0.97810337  0.97788842  0.41811964    -0.79400
O657        O  0.05975576  0.05684911  0.35714917    -0.79360
O658        O  0.92269818  0.97561700  0.30537784    -0.79430
Co659      Co  0.01802512  0.98364235  0.37862343     1.51530
Co660      Co  0.00750647  0.96308206  0.26891727     1.51690
Co661      Co  0.95019328  0.94513550  0.34223884     1.51570
Co662      Co  0.03613463  0.01246460  0.33751694     1.51470
O663        O  0.99940965  0.97010638  0.32642108    -1.41320
C664        C  0.03134524  0.06314028  0.37743944     1.10230
C665        C  0.92245218  0.97215767  0.27038838     1.10320
C666        C  0.94416011  0.98426563  0.41037278     1.10260
C667        C  0.00126418  0.04753292  0.27276233     1.10230
O668        O  0.98736015  0.93953077  0.57617031    -0.79390
O669        O  0.95088041  0.97714081  0.72298226    -0.79410
O670        O  0.05759861  0.91656700  0.69194372    -0.79420
O671        O  0.93794632  0.02525743  0.62341928    -0.79360
O672        O  0.00218224  0.92247354  0.71618405    -0.79480
O673        O  0.94298720  0.96462767  0.63105067    -0.79400
O674        O  0.94329398  0.03534413  0.70110432    -0.79390
O675        O  0.01559438  0.91074117  0.62436274    -0.79420
C676        C  0.99983703  0.90977713  0.59103594     1.10300
C677        C  0.93089887  0.00639371  0.71807612     1.10190
C678        C  0.03095651  0.90255322  0.71021878     1.10320
C679        C  0.92631810  0.99214963  0.61538937     1.10200
O680        O  0.99158290  0.01230355  0.58375453    -0.79390
O681        O  0.06228555  0.97658677  0.73258086    -0.79460
O682        O  0.08811835  0.93270394  0.62464386    -0.79400
O683        O  0.02004723  0.06127683  0.69326115    -0.79380
O684        O  0.00494239  0.03105427  0.74472375    -0.79430
O685        O  0.04933545  0.97406804  0.59664643    -0.79400
O686        O  0.01662489  0.05414047  0.61964570    -0.79360
O687        O  0.08173427  0.99024484  0.67505792    -0.79430
Co688      Co  0.99624691  0.96764432  0.61861849     1.51530
Co689      Co  0.00520170  0.97707640  0.72552212     1.51690
Co690      Co  0.04730039  0.95451711  0.65087061     1.51570
Co691      Co  0.98126577  0.04099783  0.66005475     1.51470
O692        O  0.00560520  0.98885234  0.66882385    -1.41320
C693        C  0.00828623  0.04324808  0.58738257     1.10230
C694        C  0.08827593  0.98678384  0.71010650     1.10320
C695        C  0.08009421  0.95480350  0.59738235     1.10260
C696        C  0.01528170  0.06100394  0.72814772     1.10230
C697        C  0.99637911  0.23332530  0.22882209     0.01310
C698        C  0.99636695  0.20607994  0.25622338     0.01310
C699        C  0.73887884  0.96049686  0.22989387     0.01310
C700        C  0.76474124  0.96505697  0.25787438     0.01310
C701        C  0.00584270  0.70883679  0.22186175     0.01310
C702        C  0.00189973  0.73207532  0.25164673     0.01310
C703        C  0.26941772  0.96594684  0.24085206     0.01310
C704        C  0.24041368  0.96538202  0.26475136     0.01310
C705        C  0.27521751  0.24336439  0.50795901     0.01310
C706        C  0.24728414  0.21781874  0.50735613     0.01310
C707        C  0.74329354  0.22545916  0.50460313     0.01310
C708        C  0.76799775  0.19794439  0.49399716     0.01310
C709        C  0.28450099  0.71516973  0.48887942     0.01310
C710        C  0.25644736  0.74172160  0.49094886     0.01310
C711        C  0.27257983  0.97495886  0.76138000     0.01310
C712        C  0.24930717  0.97881059  0.73092262     0.01310
C713        C  0.24119234  0.23514715  0.99376950     0.01310
C714        C  0.26924067  0.20947133  0.99685528     0.01310
C715        C  0.25512679  0.70580738  0.98827271     0.01310
C716        C  0.28015802  0.73433339  0.98543743     0.01310
C717        C  0.50374635  0.70308134  0.25510588     0.01310
C718        C  0.50062515  0.73162472  0.22997041     0.01310
C719        C  0.51293530  0.23168371  0.26135512     0.01310
C720        C  0.50369347  0.20887598  0.23252252     0.01310
C721        C  0.50096842  0.24227672  0.73598656     0.01310
C722        C  0.49815746  0.21142550  0.75861920     0.01310
C723        C  0.00288719  0.24712172  0.75517621     0.01310
C724        C  0.01073759  0.21759983  0.73247155     0.01310
C725        C  0.77304026  0.22447563  0.99905538     0.01310
C726        C  0.74682357  0.19730438  0.00179556     0.01310
C727        C  0.26456113  0.45963460  0.27088902     0.01310
C728        C  0.23858638  0.45869301  0.24303719     0.01310
C729        C  0.74444340  0.47232445  0.26694651     0.01310
C730        C  0.76862738  0.47170319  0.23731084     0.01310
C731        C  0.23783280  0.46704129  0.76046318     0.01310
C732        C  0.26715343  0.46449032  0.73624364     0.01310
C733        C  0.03988593  0.74413635  0.72555967     0.01310
C734        C  0.03725821  0.71658515  0.75226436     0.01310
C735        C  0.74826995  0.99152584  0.75564280     0.01310
C736        C  0.77557184  0.99543608  0.73041216     0.01310
C737        C  0.78284276  0.70253622  0.02098908     0.01310
C738        C  0.75343543  0.72726405  0.02125038     0.01310
C739        C  0.74069263  0.47754905  0.73862733     0.01310
C740        C  0.76858843  0.48175745  0.76449636     0.01310
C741        C  0.75825549  0.69501977  0.50984441     0.01310
C742        C  0.78411182  0.72249982  0.50844002     0.01310
C743        C  0.51694973  0.73712645  0.75398173     0.01310
C744        C  0.52169290  0.71148029  0.72608390     0.01310
C745        C  0.83782341  0.97028625  0.75056146     0.24350
C746        C  0.81472019  0.00142473  0.74162305    -0.23760
C747        C  0.83059636  0.03636797  0.73346995     0.19250
C748        C  0.86915253  0.03891289  0.72846197     0.24290
C749        C  0.89211116  0.00635657  0.73195881    -0.23710
C750        C  0.87643368  0.97261351  0.74574384     0.19190
F751        F  0.89770762  0.94086864  0.75145667    -0.13670
F752        F  0.82276877  0.93662546  0.76011998    -0.16030
F753        F  0.88332373  0.07254933  0.71747721    -0.16030
F754        F  0.80839012  0.06727447  0.72700086    -0.13670
C755        C  0.04801049  0.15816369  0.74630427     0.24350
C756        C  0.01315329  0.17758653  0.74657093    -0.23760
C757        C  0.98029388  0.15676437  0.75226150     0.19250
C758        C  0.98188468  0.11720378  0.75271908     0.24290
C759        C  0.01619742  0.09793017  0.74683888    -0.23710
C760        C  0.04946702  0.11867348  0.74585858     0.19190
F761        F  0.08303544  0.10076554  0.74066788    -0.13670
F762        F  0.08054825  0.17739361  0.74350446    -0.16030
F763        F  0.94927591  0.09789962  0.75394029    -0.16030
F764        F  0.94626492  0.17453415  0.75377047    -0.13670
C765        C  0.15129052  0.01722758  0.70800034     0.24350
C766        C  0.12793681  0.98961935  0.72339410    -0.23760
C767        C  0.14444547  0.96082007  0.74604106     0.19250
C768        C  0.18380326  0.95774235  0.75021519     0.24290
C769        C  0.20735633  0.98456426  0.73333892    -0.23710
C770        C  0.19034152  0.01511811  0.71347160     0.19190
F771        F  0.21171817  0.04235041  0.69780276    -0.13670
F772        F  0.13634906  0.04563678  0.68637789    -0.16030
F773        F  0.19874606  0.92690516  0.76808606    -0.16030
F774        F  0.12273263  0.93368208  0.76139955    -0.13670
C775        C  0.06651100  0.84517404  0.73394996     0.24350
C776        C  0.03235588  0.86279310  0.72279784    -0.23760
C777        C  0.99938161  0.84146915  0.72185749     0.19250
C778        C  0.00129932  0.80259072  0.72780978     0.24290
C779        C  0.03603454  0.78448787  0.73536940    -0.23710
C780        C  0.06810961  0.80628517  0.74109318     0.19190
F781        F  0.10152315  0.78948821  0.75050426    -0.13670
F782        F  0.09854610  0.86526798  0.73652627    -0.16030
F783        F  0.96976068  0.78210268  0.72269430    -0.16030
F784        F  0.96584076  0.85760490  0.71164228    -0.13670
C785        C  0.18590005  0.00916145  0.26160137     0.24350
C786        C  0.20106153  0.97355765  0.25304038    -0.23760
C787        C  0.17671964  0.94398949  0.24500867     0.19250
C788        C  0.13803111  0.94852196  0.25073956     0.24290
C789        C  0.12332281  0.98287822  0.26458175    -0.23710
C790        C  0.14741277  0.01382183  0.26757069     0.19190
F791        F  0.13433765  0.04801867  0.27879482    -0.13670
F792        F  0.20889657  0.03864941  0.26783364    -0.16030
F793        F  0.11560168  0.91839557  0.24537383    -0.16030
F794        F  0.19067533  0.90982907  0.23476943    -0.13670
C795        C  0.02431804  0.83249425  0.26977683     0.24350
C796        C  0.98790579  0.84795530  0.27566828    -0.23760
C797        C  0.95656542  0.82657341  0.26563941     0.19250
C798        C  0.96154309  0.78986129  0.25206343     0.24290
C799        C  0.99782975  0.77364134  0.24895513    -0.23710
C800        C  0.02912428  0.79586387  0.25648491     0.19190
F801        F  0.06447289  0.78138225  0.25297775    -0.13670
F802        F  0.05556992  0.85234451  0.27833119    -0.16030
F803        F  0.93075041  0.76934873  0.24368543    -0.16030
F804        F  0.92122400  0.84117310  0.26878745    -0.13670
C805        C  0.86792040  0.94692930  0.23390218     0.24350
C806        C  0.88493170  0.97726810  0.25226286    -0.23760
C807        C  0.86171827  0.00678153  0.26533725     0.19250
C808        C  0.82257687  0.00415880  0.26398979     0.24290
C809        C  0.80543730  0.97185332  0.24969846    -0.23710
C810        C  0.82841695  0.94405651  0.23291547     0.19190
F811        F  0.81292878  0.91235850  0.21900469    -0.13670
F812        F  0.88938936  0.91781893  0.22127040    -0.16030
F813        F  0.80157267  0.03216913  0.27934525    -0.16030
F814        F  0.87703090  0.03620425  0.28378671    -0.13670
C815        C  0.03032405  0.10501621  0.24564940     0.24350
C816        C  0.99761487  0.08545518  0.25535421    -0.23760
C817        C  0.96345405  0.10557344  0.25777206     0.19250
C818        C  0.96245533  0.14488912  0.25357703     0.24290
C819        C  0.99575410  0.16491503  0.24755966    -0.23710
C820        C  0.02936881  0.14445058  0.24152376     0.19190
F821        F  0.06182405  0.16273434  0.23447286    -0.13670
F822        F  0.06393509  0.08638975  0.24407101    -0.16030
F823        F  0.92925569  0.16364131  0.25795666    -0.16030
F824        F  0.93153115  0.08741316  0.26710560    -0.13670
C825        C  0.97110330  0.21949658  0.67527649     0.24350
C826        C  0.00732290  0.22140626  0.69117134    -0.23760
C827        C  0.03879919  0.21528892  0.66831156     0.19250
C828        C  0.03400636  0.20347520  0.63116303     0.24290
C829        C  0.99761638  0.19768788  0.61664291    -0.23710
C830        C  0.96627549  0.20747539  0.63842036     0.19190
F831        F  0.93081692  0.20372212  0.62465539    -0.13670
F832        F  0.94017111  0.22551248  0.69663873    -0.16030
F833        F  0.06487839  0.19471202  0.61060676    -0.16030
F834        F  0.07410721  0.21840501  0.68260600    -0.13670
C835        C  0.86947244  0.19833013  0.46120647     0.24350
C836        C  0.88885208  0.20220062  0.49555933    -0.23760
C837        C  0.86838026  0.20973949  0.52819108     0.19250
C838        C  0.82907029  0.21062709  0.52715354     0.24290
C839        C  0.80931693  0.20561512  0.49300971    -0.23710
C840        C  0.83003831  0.20085343  0.45977734     0.19190
F841        F  0.81216542  0.19641990  0.42627909    -0.13670
F842        F  0.88855533  0.18935466  0.42957319    -0.16030
F843        F  0.81047820  0.21239575  0.56027294    -0.16030
F844        F  0.88639582  0.21229638  0.56188659    -0.13670
C845        C  0.14528527  0.21219408  0.52309125     0.24350
C846        C  0.13334374  0.20945657  0.48555021    -0.23760
C847        C  0.15657573  0.22215815  0.45646503     0.19250
C848        C  0.19336726  0.23286010  0.46460631     0.24290
C849        C  0.20736886  0.22903707  0.50159398    -0.23710
C850        C  0.18229731  0.22195799  0.53110809     0.19190
F851        F  0.19501526  0.21945452  0.56721780    -0.13670
F852        F  0.12290864  0.20040546  0.55153615    -0.16030
F853        F  0.21672213  0.24162901  0.43587687    -0.16030
F854        F  0.14471295  0.22097079  0.42003945    -0.13670
C855        C  0.97519178  0.21397371  0.36035247     0.24350
C856        C  0.01148771  0.20813535  0.37576505    -0.23760
C857        C  0.04258387  0.20914196  0.35166028     0.19250
C858        C  0.03745539  0.21195708  0.31278709     0.24290
C859        C  0.00113206  0.21472648  0.29692698    -0.23710
C860        C  0.97005135  0.21727294  0.32109204     0.19190
F861        F  0.93465590  0.22043745  0.30665317    -0.13670
F862        F  0.94459930  0.21319697  0.38285058    -0.16030
F863        F  0.06816851  0.20968837  0.29048050    -0.16030
F864        F  0.07813506  0.20518355  0.36569109    -0.13670
C865        C  0.27968456  0.00380568  0.67171598     0.24350
C866        C  0.26421244  0.97379742  0.69228318    -0.23760
C867        C  0.25632260  0.94009794  0.67383968     0.19250
C868        C  0.25836370  0.93830455  0.63475042     0.24290
C869        C  0.26692161  0.97062637  0.61346011    -0.23710
C870        C  0.28081344  0.00230851  0.63220279     0.19190
F871        F  0.28969106  0.03378233  0.61231450    -0.13670
F872        F  0.28927104  0.03604165  0.68935406    -0.16030
F873        F  0.24515743  0.90730076  0.61737952    -0.16030
F874        F  0.24249265  0.91029648  0.69334166    -0.13670
C875        C  0.23661983  0.11686299  0.48059844     0.24350
C876        C  0.23374987  0.09929875  0.51619445    -0.23760
C877        C  0.24384475  0.11982065  0.54840917     0.19250
C878        C  0.25383326  0.15789551  0.54517666     0.24290
C879        C  0.25335835  0.17616593  0.50984107    -0.23710
C880        C  0.24627464  0.15473492  0.47750814     0.19190
F881        F  0.24590248  0.17120857  0.44282087    -0.13670
F882        F  0.22761482  0.09813138  0.44868781    -0.16030
F883        F  0.26134088  0.17766757  0.57677937    -0.16030
F884        F  0.24346292  0.10325662  0.58304636    -0.13670
C885        C  0.26837559  0.80719962  0.46775858     0.24350
C886        C  0.26386618  0.78223816  0.49837924    -0.23760
C887        C  0.25677217  0.79731349  0.53415375     0.19250
C888        C  0.24939840  0.83601896  0.53812227     0.24290
C889        C  0.25201981  0.86062658  0.50700738    -0.23710
C890        C  0.26379835  0.84608582  0.47234786     0.19190
F891        F  0.26614216  0.86900362  0.44160796    -0.13670
F892        F  0.27326784  0.79386017  0.43248850    -0.16030
F893        F  0.23720941  0.84900012  0.57169109    -0.16030
F894        F  0.25412225  0.77431158  0.56474489    -0.13670
C895        C  0.25081993  0.98727162  0.36702048     0.24350
C896        C  0.23475858  0.95481299  0.38312730    -0.23760
C897        C  0.22843531  0.92326391  0.36043303     0.19250
C898        C  0.23430808  0.92563790  0.32184633     0.24290
C899        C  0.24615676  0.95949870  0.30545348    -0.23710
C900        C  0.25629464  0.98959591  0.32832559     0.19190
F901        F  0.26897739  0.02215586  0.31300022    -0.13670
F902        F  0.25934320  0.01762087  0.38823965    -0.16030
F903        F  0.22622681  0.89554172  0.30016237    -0.16030
F904        F  0.21437514  0.89089564  0.37497283    -0.13670
C905        C  0.76214160  0.10040046  0.45411073     0.24350
C906        C  0.77276165  0.07907406  0.48609602    -0.23760
C907        C  0.77404441  0.09738645  0.52113132     0.19250
C908        C  0.76534514  0.13548521  0.52432904     0.24290
C909        C  0.75854048  0.15745736  0.49217787    -0.23710
C910        C  0.75541483  0.13945491  0.45704294     0.19190
F911        F  0.74834721  0.16002288  0.42523980    -0.13670
F912        F  0.76096455  0.08408361  0.41980173    -0.16030
F913        F  0.76843910  0.15180781  0.55858617    -0.16030
F914        F  0.78850491  0.08028754  0.55202000    -0.13670
C915        C  0.76845040  0.92531583  0.35654391     0.24350
C916        C  0.76149199  0.95768179  0.37801472    -0.23760
C917        C  0.74677144  0.99015323  0.35980466     0.19250
C918        C  0.74293889  0.99132658  0.32025942     0.24290
C919        C  0.75498952  0.96043239  0.29857710    -0.23710
C920        C  0.76558983  0.92677083  0.31723021     0.19190
F921        F  0.77638605  0.89617994  0.29717030    -0.13670
F922        F  0.78181422  0.89324801  0.37345463    -0.16030
F923        F  0.73067398  0.02366146  0.30305656    -0.16030
F924        F  0.73905239  0.02155886  0.37990150    -0.13670
C925        C  0.78637688  0.95589302  0.63450977     0.24350
C926        C  0.78125518  0.98856556  0.61205463    -0.23760
C927        C  0.76617642  0.02135508  0.62836974     0.19250
C928        C  0.76023407  0.02261660  0.66712922     0.24290
C929        C  0.76911148  0.99108652  0.68974784    -0.23710
C930        C  0.78024263  0.95718352  0.67303512     0.19190
F931        F  0.78753408  0.92587806  0.69435868    -0.13670
F932        F  0.79965097  0.92321955  0.61965352    -0.16030
F933        F  0.74760014  0.05508391  0.68281260    -0.16030
F934        F  0.75689984  0.05200734  0.60710453    -0.13670
C935        C  0.76492829  0.82562938  0.52029305     0.24350
C936        C  0.77906291  0.83943222  0.48577939    -0.23760
C937        C  0.78593151  0.81393425  0.45647340     0.19250
C938        C  0.78289035  0.77543032  0.46296919     0.24290
C939        C  0.77339104  0.76171240  0.49878782    -0.23710
C940        C  0.76216460  0.78687980  0.52668480     0.19190
F941        F  0.75129173  0.77393138  0.56094772    -0.13670
F942        F  0.75612788  0.84927503  0.54879195    -0.16030
F943        F  0.79190373  0.75132421  0.43493210    -0.16030
F944        F  0.79798272  0.82581669  0.42221244    -0.13670
C945        C  0.16221251  0.73891026  0.44054532     0.24350
C946        C  0.13717853  0.73838903  0.47114991    -0.23760
C947        C  0.15219874  0.73193456  0.50765498     0.19250
C948        C  0.19107596  0.72958493  0.51366405     0.24290
C949        C  0.21609655  0.73304544  0.48345326    -0.23710
C950        C  0.20125879  0.73602985  0.44668939     0.19190
F951        F  0.22466363  0.73810211  0.41680206    -0.13670
F952        F  0.14910334  0.74340486  0.40472426    -0.16030
F953        F  0.20412321  0.72568972  0.54951398    -0.16030
F954        F  0.12951111  0.73017324  0.53818137    -0.13670
C955        C  0.03828290  0.71355568  0.30940516     0.24350
C956        C  0.00318764  0.71698900  0.29091373    -0.23760
C957        C  0.97014404  0.71439077  0.31212232     0.19250
C958        C  0.97223011  0.71446495  0.35148973     0.24290
C959        C  0.00738542  0.71541432  0.36973222    -0.23710
C960        C  0.04027162  0.71167754  0.34858009     0.19190
F961        F  0.07453117  0.71273994  0.36579998    -0.13670
F962        F  0.07079200  0.71644625  0.28990299    -0.16030
F963        F  0.94013432  0.71821640  0.37162274    -0.16030
F964        F  0.93593414  0.71552945  0.29491338    -0.13670
C965        C  0.07141111  0.75361741  0.66379993     0.24350
C966        C  0.04136803  0.73785199  0.68412349    -0.23760
C967        C  0.00878539  0.72773871  0.66428374     0.19250
C968        C  0.00538332  0.73568560  0.62561585     0.24290
C969        C  0.03403748  0.75485999  0.60633882    -0.23710
C970        C  0.06741314  0.76290679  0.62551876     0.19190
F971        F  0.09601881  0.77995961  0.60726685    -0.13670
F972        F  0.10408462  0.76200802  0.68157817    -0.16030
F973        F  0.97295164  0.72683773  0.60748561    -0.16030
F974        F  0.97905673  0.71308473  0.68281536    -0.13670
C975        C  0.88063448  0.74080460  0.54625484     0.24350
C976        C  0.90318212  0.73284573  0.51488297    -0.23760
C977        C  0.88688077  0.71307728  0.48453280     0.19250
C978        C  0.84835899  0.70495906  0.48414022     0.24290
C979        C  0.82538475  0.71620886  0.51403290    -0.23710
C980        C  0.84233051  0.73229014  0.54587798     0.19190
F981        F  0.82101477  0.74250130  0.57569758    -0.13670
F982        F  0.89508495  0.75847625  0.57671742    -0.16030
F983        F  0.83306157  0.68889290  0.45319003    -0.16030
F984        F  0.90744050  0.70392006  0.45383202    -0.13670
C985        C  0.77318752  0.13612765  0.97768205     0.24350
C986        C  0.75797975  0.15718329  0.00735494    -0.23760
C987        C  0.74522395  0.13843659  0.03970349     0.19250
C988        C  0.74168019  0.09953334  0.03971605     0.24290
C989        C  0.75386148  0.07865114  0.00873816    -0.23710
C990        C  0.77231276  0.09682988  0.97904715     0.19190
F991        F  0.78374241  0.07710402  0.94856786    -0.13670
F992        F  0.78400751  0.15328804  0.94534548    -0.16030
F993        F  0.72178728  0.08297536  0.06757937    -0.16030
F994        F  0.73170415  0.15813217  0.06934130    -0.13670
C995        C  0.72613408  0.82444296  0.05317425     0.24350
C996        C  0.73751565  0.84701980  0.02261197    -0.23760
C997        C  0.76120800  0.83041434  0.99530613     0.19250
C998        C  0.77019784  0.79182175  0.99675835     0.24290
C999        C  0.75656367  0.76892405  0.02593592    -0.23710
C1000       C  0.73605833  0.78610349  0.05502853     0.19190
F1001       F  0.72330645  0.76505215  0.08423517    -0.13670
F1002       F  0.70362617  0.83869920  0.08036148    -0.16030
F1003       F  0.78955916  0.77649386  0.96782850    -0.16030
F1004       F  0.77421863  0.85092217  0.96578252    -0.13670
C1005       C  0.74979208  0.95431170  0.85453850     0.24350
C1006       C  0.74872053  0.98814541  0.87471252    -0.23760
C1007       C  0.75549268  0.02245431  0.85583317     0.19250
C1008       C  0.75949749  0.02321457  0.81683005     0.24290
C1009       C  0.75606337  0.98987646  0.79644135    -0.23710
C1010       C  0.75318713  0.95526185  0.81556905     0.19190
F1011       F  0.75124218  0.92253706  0.79631935    -0.13670
F1012       F  0.74412244  0.92061776  0.87196269    -0.16030
F1013       F  0.76405297  0.05673056  0.79877411    -0.16030
F1014       F  0.75645678  0.05541120  0.87483201    -0.13670
C1015       C  0.74262328  0.93161756  0.16684040     0.24350
C1016       C  0.74814787  0.96335691  0.18916564    -0.23760
C1017       C  0.75228326  0.99869830  0.17137965     0.19250
C1018       C  0.74689323  0.00255340  0.13219647     0.24290
C1019       C  0.73747863  0.97113818  0.11046303    -0.23710
C1020       C  0.73743832  0.93544314  0.12809794     0.19190
F1021       F  0.73034858  0.90403123  0.10833567    -0.13670
F1022       F  0.73971700  0.89690106  0.18289373    -0.16030
F1023       F  0.75036538  0.03688750  0.11580107    -0.16030
F1024       F  0.75898223  0.02976120  0.19219470    -0.13670
C1025       C  0.26811367  0.83788319  0.96518445     0.24350
C1026       C  0.27346544  0.85184408  0.00151711    -0.23760
C1027       C  0.27159327  0.82733489  0.03270274     0.19250
C1028       C  0.26810103  0.78869462  0.02737671     0.24290
C1029       C  0.26822158  0.77412033  0.99078574    -0.23710
C1030       C  0.26592238  0.79906252  0.95975130     0.19190
F1031       F  0.26446215  0.78585600  0.92411485    -0.13670
F1032       F  0.26912635  0.86137500  0.93483835    -0.16030
F1033       F  0.26794398  0.76532438  0.05789141    -0.16030
F1034       F  0.27576686  0.84061441  0.06818121    -0.13670
C1035       C  0.26666596  0.10524439  0.01468207     0.24350
C1036       C  0.27447052  0.09219588  0.97814140    -0.23760
C1037       C  0.27109070  0.11751109  0.94743428     0.19250
C1038       C  0.26509797  0.15576249  0.95363787     0.24290
C1039       C  0.26217134  0.16923355  0.99045529    -0.23710
C1040       C  0.26041490  0.14365721  0.02070575     0.19190
F1041       F  0.25476313  0.15602138  0.05624133    -0.13670
F1042       F  0.26769533  0.08148562  0.04494390    -0.16030
F1043       F  0.26502727  0.18004532  0.92381071    -0.16030
F1044       F  0.27571816  0.10570724  0.91149844    -0.13670
C1045       C  0.27310760  0.93373164  0.85813802     0.24350
C1046       C  0.26231888  0.96503168  0.87940728    -0.23760
C1047       C  0.24544951  0.99648303  0.86111859     0.19250
C1048       C  0.24400450  0.99841891  0.82160731     0.24290
C1049       C  0.25909158  0.96869356  0.80039336    -0.23710
C1050       C  0.27087766  0.93529611  0.81898053     0.19190
F1051       F  0.28448303  0.90570270  0.79908444    -0.13670
F1052       F  0.29035737  0.90351062  0.87501132    -0.16030
F1053       F  0.23230623  0.03091330  0.80431370    -0.16030
F1054       F  0.23544257  0.02733584  0.88119236    -0.13670
C1055       C  0.27106184  0.98919048  0.13756620     0.24350
C1056       C  0.28248922  0.95378962  0.12402548    -0.23760
C1057       C  0.27991762  0.92180342  0.14749101     0.19250
C1058       C  0.27035961  0.92565736  0.18507580     0.24290
C1059       C  0.26403815  0.96155549  0.19994888    -0.23710
C1060       C  0.26201921  0.99308895  0.17566739     0.19190
F1061       F  0.25391683  0.02780138  0.18932537    -0.13670
F1062       F  0.27203680  0.02029749  0.11499573    -0.16030
F1063       F  0.27052163  0.89457949  0.20773368    -0.16030
F1064       F  0.28896872  0.88696381  0.13457532    -0.13670
C1065       C  0.45826377  0.11333589  0.23636795     0.24350
C1066       C  0.48941010  0.08962339  0.22872636    -0.23760
C1067       C  0.52566563  0.10521951  0.22885896     0.19250
C1068       C  0.53026271  0.14384031  0.23356912     0.24290
C1069       C  0.49894768  0.16774158  0.23843748    -0.23710
C1070       C  0.46308930  0.15205022  0.24157015     0.19190
F1071       F  0.43256071  0.17431386  0.24828571    -0.13670
F1072       F  0.42303844  0.09936261  0.23801425    -0.16030
F1073       F  0.56530085  0.15828933  0.23117859    -0.16030
F1074       F  0.55667906  0.08361032  0.22198909    -0.13670
C1075       C  0.53214664  0.79242309  0.23739918     0.24350
C1076       C  0.49923866  0.77164805  0.24109474    -0.23760
C1077       C  0.46459063  0.79075747  0.24523070     0.19250
C1078       C  0.46234349  0.82990122  0.23963109     0.24290
C1079       C  0.49509937  0.85031773  0.23282159    -0.23710
C1080       C  0.53012617  0.83146741  0.23406221     0.19190
F1081       F  0.56225901  0.85027004  0.22771625    -0.13670
F1082       F  0.56595339  0.77465239  0.23323412    -0.16030
F1083       F  0.42817346  0.84730892  0.23823834    -0.16030
F1084       F  0.43269122  0.77129734  0.25162298    -0.13670
C1085       C  0.36688559  0.00251115  0.24944383     0.24350
C1086       C  0.38791124  0.96876941  0.25269294    -0.23760
C1087       C  0.36939154  0.93540298  0.26218392     0.19250
C1088       C  0.32996931  0.93492103  0.26321616     0.24290
C1089       C  0.30904152  0.96779839  0.25412454    -0.23710
C1090       C  0.32774462  0.00201162  0.24995966     0.19190
F1091       F  0.30812869  0.03441570  0.24245888    -0.13670
F1092       F  0.38392017  0.03517161  0.24019302    -0.16030
F1093       F  0.31238489  0.90187104  0.26976750    -0.16030
F1094       F  0.38920637  0.90274604  0.26677722    -0.13670
C1095       C  0.64360079  0.91534244  0.22938983     0.24350
C1096       C  0.62101940  0.94645341  0.21793393    -0.23760
C1097       C  0.63706564  0.98270667  0.21858205     0.19250
C1098       C  0.67466874  0.98741982  0.22831067     0.24290
C1099       C  0.69792014  0.95622782  0.23672976    -0.23710
C1100       C  0.68175889  0.92027430  0.23899250     0.19190
F1101       F  0.70340689  0.88972151  0.24852644    -0.13670
F1102       F  0.62913324  0.88029379  0.23094411    -0.16030
F1103       F  0.68927152  0.02250682  0.22633436    -0.16030
F1104       F  0.61695389  0.01391862  0.20764792    -0.13670
C1105       C  0.68642115  0.21778746  0.03262560     0.24350
C1106       C  0.70527400  0.20416977  0.00072049    -0.23760
C1107       C  0.68426922  0.18520317  0.97311810     0.19250
C1108       C  0.64655048  0.17653492  0.97922369     0.24290
C1109       C  0.62910128  0.18699073  0.01289445    -0.23710
C1110       C  0.64867397  0.20926025  0.03856518     0.19190
F1111       F  0.63171003  0.22143266  0.07031635    -0.13670
F1112       F  0.70525230  0.23534946  0.06040581    -0.16030
F1113       F  0.62815359  0.15503948  0.95380388    -0.16030
F1114       F  0.70143974  0.17155970  0.94199038    -0.13670
C1115       C  0.36901869  0.22636305  0.96792106     0.24350
C1116       C  0.38807162  0.21195805  0.99990684    -0.23760
C1117       C  0.36807711  0.20565245  0.03313341     0.19250
C1118       C  0.32905860  0.21053479  0.03346068     0.24290
C1119       C  0.30941137  0.21984751  0.00004100    -0.23710
C1120       C  0.32975836  0.22997003  0.96782094     0.19190
F1121       F  0.31159932  0.23950155  0.93523702    -0.13670
F1122       F  0.38793138  0.23233902  0.93543039    -0.16030
F1123       F  0.31018618  0.20260783  0.06553843    -0.16030
F1124       F  0.38574386  0.19066888  0.06397316    -0.13670
C1125       C  0.52203067  0.19262412  0.85985539     0.24350
C1126       C  0.48571605  0.19127146  0.87510298    -0.23760
C1127       C  0.45494147  0.20533949  0.85378140     0.19250
C1128       C  0.46000351  0.21765718  0.81671993     0.24290
C1129       C  0.49555763  0.21454580  0.80010541    -0.23710
C1130       C  0.52684569  0.20393638  0.82247253     0.19190
F1131       F  0.56169914  0.20182833  0.80729870    -0.13670
F1132       F  0.55246769  0.18003923  0.88001788    -0.16030
F1133       F  0.42969725  0.22976937  0.79614334    -0.16030
F1134       F  0.41978893  0.20597151  0.86837918    -0.13670
C1135       C  0.53970124  0.22221946  0.13472372     0.24350
C1136       C  0.50670993  0.21550551  0.11391670    -0.23760
C1137       C  0.47196143  0.21657391  0.13204720     0.19250
C1138       C  0.47056316  0.21965016  0.17114004     0.24290
C1139       C  0.50402837  0.22129265  0.19250789    -0.23710
C1140       C  0.53837885  0.22534607  0.17390069     0.19190
F1141       F  0.57100782  0.22772565  0.19384423    -0.13670
F1142       F  0.57365264  0.22086367  0.11769717    -0.16030
F1143       F  0.43672999  0.21757743  0.18830880    -0.16030
F1144       F  0.43984518  0.21001782  0.11249336    -0.13670
C1145       C  0.65459716  0.94915549  0.74062076     0.24350
C1146       C  0.63191572  0.97923386  0.75270287    -0.23760
C1147       C  0.64668719  0.01529629  0.75609687     0.19250
C1148       C  0.68500455  0.02046584  0.75141955     0.24290
C1149       C  0.70859708  0.98932286  0.74440070    -0.23710
C1150       C  0.69308144  0.95420168  0.73638586     0.19190
F1151       F  0.71552508  0.92398957  0.72880765    -0.13670
F1152       F  0.64027238  0.91408034  0.73744460    -0.16030
F1153       F  0.69961493  0.05491464  0.75786059    -0.16030
F1154       F  0.62484242  0.04439221  0.76809842    -0.13670
C1155       C  0.37612189  0.94806654  0.75030609     0.24350
C1156       C  0.39313124  0.97818522  0.76887516    -0.23760
C1157       C  0.37086748  0.00887989  0.78026615     0.19250
C1158       C  0.33193776  0.00880285  0.77483936     0.24290
C1159       C  0.31434834  0.97779142  0.75829920    -0.23710
C1160       C  0.33686542  0.94774112  0.74516606     0.19190
F1161       F  0.32078229  0.91716302  0.72954145    -0.13670
F1162       F  0.39729355  0.91826736  0.73881286    -0.16030
F1163       F  0.31111557  0.03844008  0.78734220    -0.16030
F1164       F  0.38671965  0.03843072  0.79799415    -0.13670
C1165       C  0.46400177  0.11386937  0.75953210     0.24350
C1166       C  0.49839308  0.09395398  0.76277703    -0.23760
C1167       C  0.53165831  0.11233576  0.75232017     0.19250
C1168       C  0.53092705  0.15104991  0.74366426     0.24290
C1169       C  0.49703650  0.17185495  0.74545953    -0.23710
C1170       C  0.46331605  0.15226654  0.75049517     0.19190
F1171       F  0.42983825  0.17114375  0.75089139    -0.13670
F1172       F  0.43100855  0.09661667  0.76680398    -0.16030
F1173       F  0.56384517  0.16901492  0.73787777    -0.16030
F1174       F  0.56530597  0.09377886  0.75375124    -0.13670
C1175       C  0.55012451  0.79704960  0.74114958     0.24350
C1176       C  0.51588023  0.77845078  0.74556521    -0.23760
C1177       C  0.48257990  0.80020526  0.74904929     0.19250
C1178       C  0.48417717  0.83971319  0.75168411     0.24290
C1179       C  0.51903940  0.85784793  0.75001492    -0.23710
C1180       C  0.55153368  0.83618335  0.74229470     0.19190
F1181       F  0.58554881  0.85274801  0.73894878    -0.13670
F1182       F  0.58301471  0.77729024  0.73928800    -0.16030
F1183       F  0.45231663  0.85966452  0.75931709    -0.16030
F1184       F  0.44886071  0.78318779  0.75220108    -0.13670
C1185       C  0.38161297  0.73309591  0.01642525     0.24350
C1186       C  0.39948163  0.74525662  0.98355717    -0.23760
C1187       C  0.37887726  0.74698990  0.94968676     0.19250
C1188       C  0.34049253  0.73787823  0.94925501     0.24290
C1189       C  0.32179174  0.72891633  0.98302075    -0.23710
C1190       C  0.34312729  0.72634449  0.01652373     0.19190
F1191       F  0.32643590  0.72085682  0.05019956    -0.13670
F1192       F  0.40104134  0.73023699  0.04932760    -0.16030
F1193       F  0.32119825  0.73964174  0.91614902    -0.16030
F1194       F  0.39571064  0.75781210  0.91727638    -0.13670
C1195       C  0.65122870  0.70523292  0.03004819     0.24350
C1196       C  0.63865845  0.71910462  0.99488749    -0.23760
C1197       C  0.66444794  0.72578923  0.96612748     0.19250
C1198       C  0.70266533  0.72423087  0.97403385     0.24290
C1199       C  0.71543088  0.71510491  0.01057413    -0.23710
C1200       C  0.68987505  0.70278822  0.03779036     0.19190
F1201       F  0.70209315  0.69249116  0.07280407    -0.13670
F1202       F  0.62635232  0.69858724  0.05800893    -0.16030
F1203       F  0.72709174  0.73531234  0.94704559    -0.16030
F1204       F  0.65249888  0.73891594  0.93187607    -0.13670
C1205       C  0.53262766  0.71945596  0.12976752     0.24350
C1206       C  0.49926453  0.72985252  0.11029158    -0.23760
C1207       C  0.46570032  0.73427007  0.13058229     0.19250
C1208       C  0.46599530  0.73163941  0.16946730     0.24290
C1209       C  0.49976999  0.72496672  0.18908496    -0.23710
C1210       C  0.53286705  0.71716590  0.16915354     0.19190
F1211       F  0.56570130  0.70974487  0.18783262    -0.13670
F1212       F  0.56548596  0.71465830  0.11112522    -0.16030
F1213       F  0.43322912  0.73711649  0.18802257    -0.16030
F1214       F  0.43266118  0.74339054  0.11315301    -0.13670
C1215       C  0.49226409  0.73076889  0.85698262     0.24350
C1216       C  0.52810664  0.73318317  0.87376453    -0.23760
C1217       C  0.56009542  0.72852090  0.85092025     0.19250
C1218       C  0.55629560  0.72518638  0.81184624     0.24290
C1219       C  0.52056354  0.72712090  0.79473762    -0.23710
C1220       C  0.48855009  0.72807847  0.81777628     0.19190
F1221       F  0.45355598  0.72843659  0.80221008    -0.13670
F1222       F  0.46078248  0.73414530  0.87807029    -0.16030
F1223       F  0.58770048  0.72259650  0.79054301    -0.16030
F1224       F  0.59525242  0.72887114  0.86621028    -0.13670
C1225       C  0.88359834  0.71397605  0.04641420     0.24350
C1226       C  0.90018470  0.70315066  0.01222921    -0.23760
C1227       C  0.87789382  0.70237942  0.97937679     0.19250
C1228       C  0.83909440  0.70755068  0.98162919     0.24290
C1229       C  0.82212605  0.71446061  0.01648613    -0.23710
C1230       C  0.84477628  0.72063530  0.04823732     0.19190
F1231       F  0.82890062  0.72910828  0.08178036    -0.13670
F1232       F  0.90450666  0.71601255  0.07844472    -0.16030
F1233       F  0.81762849  0.70195942  0.95041410    -0.16030
F1234       F  0.89296435  0.69259499  0.94579070    -0.13670
C1235       C  0.19174864  0.72775085  0.96222034     0.24350
C1236       C  0.21395957  0.71430754  0.99277017    -0.23760
C1237       C  0.19628561  0.70617976  0.02704321     0.19250
C1238       C  0.15703184  0.70798598  0.02971392     0.24290
C1239       C  0.13450888  0.71789404  0.99814823    -0.23710
C1240       C  0.15232157  0.72975990  0.96496785     0.19190
F1241       F  0.13151621  0.73880555  0.93380389    -0.13670
F1242       F  0.20790711  0.73577841  0.92868910    -0.16030
F1243       F  0.14072262  0.69632926  0.06216860    -0.16030
F1244       F  0.21686442  0.69436756  0.05744164    -0.13670
C1245       C  0.01178505  0.73386392  0.81525645     0.24350
C1246       C  0.04272155  0.72420046  0.79296798    -0.23760
C1247       C  0.07571635  0.71014242  0.81051889     0.19250
C1248       C  0.07609641  0.70084901  0.84883716     0.24290
C1249       C  0.04342529  0.70592170  0.87048535    -0.23710
C1250       C  0.01201626  0.72477527  0.85370011     0.19190
F1251       F  0.98054193  0.73250500  0.87376439    -0.13670
F1252       F  0.98005172  0.74888661  0.79921873    -0.16030
F1253       F  0.10783955  0.68490910  0.86400169    -0.16030
F1254       F  0.10662182  0.70215103  0.78972416    -0.13670
C1255       C  0.05507687  0.69591953  0.13089419     0.24350
C1256       C  0.02749455  0.70894539  0.10522957    -0.23760
C1257       C  0.99792258  0.73204992  0.11851490     0.19250
C1258       C  0.99278756  0.73681994  0.15739802     0.24290
C1259       C  0.01822397  0.72008136  0.18333972    -0.23710
C1260       C  0.05105054  0.70243139  0.16943100     0.19190
F1261       F  0.07735533  0.68768439  0.19354784    -0.13670
F1262       F  0.08450659  0.67445393  0.11895689    -0.16030
F1263       F  0.96087073  0.75400295  0.16959488    -0.16030
F1264       F  0.97154025  0.74631845  0.09422686    -0.13670
C1265       C  0.83369599  0.20812682  0.03227456     0.24350
C1266       C  0.81380246  0.21451718  0.99845593    -0.23760
C1267       C  0.83361037  0.21545815  0.96442730     0.19250
C1268       C  0.87291037  0.21309162  0.96462033     0.24290
C1269       C  0.89292574  0.21274045  0.99893892    -0.23710
C1270       C  0.87292231  0.20887430  0.03265109     0.19190
F1271       F  0.89097630  0.21024716  0.06624700    -0.13670
F1272       F  0.81526848  0.20425189  0.06533056    -0.16030
F1273       F  0.89135448  0.21644756  0.93149777    -0.16030
F1274       F  0.81508977  0.22086967  0.93116412    -0.13670
C1275       C  0.01755311  0.23105583  0.85864007     0.24350
C1276       C  0.98316680  0.24511548  0.87309856    -0.23760
C1277       C  0.95330653  0.25356089  0.84802583     0.19250
C1278       C  0.95891305  0.25121936  0.80927091     0.24290
C1279       C  0.99441298  0.24090887  0.79525465    -0.23710
C1280       C  0.02316976  0.22953405  0.82012818     0.19190
F1281       F  0.05760488  0.21920832  0.80725176    -0.13670
F1282       F  0.04681468  0.22055371  0.88153773    -0.16030
F1283       F  0.93004651  0.26029162  0.78543381    -0.16030
F1284       F  0.91935844  0.26571620  0.86072983    -0.13670
C1285       C  0.14750120  0.23899453  0.03899160     0.24350
C1286       C  0.12416584  0.24203183  0.00688942    -0.23760
C1287       C  0.13908632  0.23196927  0.97154086     0.19250
C1288       C  0.17732439  0.22368643  0.96791137     0.24290
C1289       C  0.20128850  0.22556186  0.99926244    -0.23710
C1290       C  0.18577508  0.23045471  0.03516843     0.19190
F1291       F  0.20829730  0.23011616  0.06623985    -0.13670
F1292       F  0.13382700  0.24600370  0.07381285    -0.16030
F1293       F  0.19136038  0.21673748  0.93323999    -0.16030
F1294       F  0.11740592  0.23263850  0.93982636    -0.13670
C1295       C  0.03545124  0.23868859  0.17161397     0.26030
C1296       C  0.00314673  0.22416208  0.18856845    -0.23760
C1297       C  0.97490390  0.20891229  0.16555643     0.19250
C1298       C  0.97737927  0.21192720  0.12614915     0.24290
C1299       C  0.00740070  0.23101704  0.10958773    -0.23710
C1300       C  0.03734064  0.24251255  0.13257156     0.19190
F1301       F  0.06716570  0.26037107  0.11739413    -0.13670
F1302       F  0.06378509  0.25241449  0.19309690    -0.16030
F1303       F  0.94931839  0.19859999  0.10442144    -0.16030
F1304       F  0.94340626  0.19453571  0.18107470    -0.13670
C1305       C  0.82767994  0.43311962  0.23223049     0.24350
C1306       C  0.80997848  0.46650316  0.24406530    -0.23760
C1307       C  0.83220771  0.49574585  0.25821870     0.19250
C1308       C  0.87161889  0.49279670  0.25735469     0.24290
C1309       C  0.88916925  0.46077817  0.24194544    -0.23710
C1310       C  0.86686159  0.43028067  0.23119039     0.19190
F1311       F  0.88302906  0.39885576  0.21661146    -0.13670
F1312       F  0.80692793  0.40405243  0.21944184    -0.16030
F1313       F  0.89235350  0.52294392  0.26736733    -0.16030
F1314       F  0.81589102  0.52843138  0.26967730    -0.13670
C1315       C  0.13879655  0.48637428  0.23533991     0.24350
C1316       C  0.12196377  0.45092481  0.23143287    -0.23760
C1317       C  0.14285745  0.41803388  0.24050615     0.19250
C1318       C  0.18097487  0.42060878  0.25020188     0.24290
C1319       C  0.19820828  0.45593819  0.25031313    -0.23710
C1320       C  0.17642998  0.48874189  0.24496768     0.19190
F1321       F  0.19252161  0.52316324  0.24496270    -0.13670
F1322       F  0.11988290  0.51895185  0.22657324    -0.16030
F1323       F  0.20171480  0.38864506  0.25643711    -0.16030
F1324       F  0.12688110  0.38360753  0.23862391    -0.13670
C1325       C  0.01585692  0.60453453  0.24109277     0.24350
C1326       C  0.98348385  0.59095036  0.22260727    -0.23760
C1327       C  0.95621094  0.61691304  0.20890991     0.19250
C1328       C  0.96277360  0.65552121  0.21092183     0.24290
C1329       C  0.99668073  0.66856643  0.22620019    -0.23710
C1330       C  0.02267712  0.64284415  0.24209918     0.19190
F1331       F  0.05590719  0.65429697  0.25655186    -0.13670
F1332       F  0.04231211  0.58082629  0.25656220    -0.16030
F1333       F  0.93675351  0.68021798  0.19642355    -0.16030
F1334       F  0.92415976  0.60513143  0.19196739    -0.13670
C1335       C  0.01866101  0.33586717  0.24946192     0.24350
C1336       C  0.99108674  0.35435238  0.22699000    -0.23760
C1337       C  0.96189991  0.33303107  0.21160378     0.19250
C1338       C  0.96128861  0.29389136  0.21697465     0.24290
C1339       C  0.99094922  0.27471747  0.23610154    -0.23710
C1340       C  0.01915632  0.29637870  0.25321870     0.19190
F1341       F  0.04954885  0.27952405  0.26981123    -0.13670
F1342       F  0.04776477  0.35551680  0.26397495    -0.16030
F1343       F  0.93328480  0.27424164  0.20043790    -0.16030
F1344       F  0.93531904  0.34976535  0.18907635    -0.13670
C1345       C  0.25257307  0.50097455  0.86165546     0.24350
C1346       C  0.23400002  0.47258536  0.88196415    -0.23760
C1347       C  0.22154002  0.44086641  0.86232424     0.19250
C1348       C  0.22623480  0.43795588  0.82345343     0.24290
C1349       C  0.24261668  0.46713737  0.80255610    -0.23710
C1350       C  0.25659486  0.49844530  0.82215466     0.19190
F1351       F  0.27190181  0.52757966  0.80289870    -0.13670
F1352       F  0.26507334  0.53191239  0.87963880    -0.16030
F1353       F  0.21293707  0.40707786  0.80584515    -0.16030
F1354       F  0.20298947  0.41311722  0.88047324    -0.13670
C1355       C  0.24129892  0.44231072  0.13872240     0.24350
C1356       C  0.24330422  0.47953684  0.12465124    -0.23760
C1357       C  0.25121830  0.50877592  0.14964952     0.19250
C1358       C  0.25371521  0.50144986  0.18837556     0.24290
C1359       C  0.24810457  0.46479094  0.20265167    -0.23710
C1360       C  0.24363651  0.43509182  0.17737142     0.19190
F1361       F  0.23912642  0.39930300  0.19024142    -0.13670
F1362       F  0.23393506  0.41317689  0.11544108    -0.16030
F1363       F  0.25876867  0.53073066  0.21194112    -0.16030
F1364       F  0.25518642  0.54464700  0.13673493    -0.13670
C1365       C  0.27969721  0.60546170  0.01957642     0.24350
C1366       C  0.26490722  0.58512560  0.98933382    -0.23760
C1367       C  0.25464015  0.60489963  0.95610026     0.19250
C1368       C  0.25584047  0.64436673  0.95441556     0.24290
C1369       C  0.26639871  0.66501280  0.98623711    -0.23710
C1370       C  0.27957865  0.64503189  0.01844299     0.19190
F1371       F  0.28751327  0.66338278  0.05066099    -0.13670
F1372       F  0.28846094  0.58737586  0.05250473    -0.16030
F1373       F  0.24265365  0.66256505  0.92302552    -0.16030
F1374       F  0.23849902  0.58634602  0.92708631    -0.13670
C1375       C  0.24032180  0.29262484  0.95351772     0.24350
C1376       C  0.24800945  0.27562728  0.98874238    -0.23760
C1377       C  0.25200014  0.29797724  0.02055808     0.19250
C1378       C  0.24409575  0.33640630  0.01813722     0.24290
C1379       C  0.23239262  0.35312829  0.98349605    -0.23710
C1380       C  0.23234370  0.33116016  0.95088437     0.19190
F1381       F  0.22340355  0.34653307  0.91674137    -0.13670
F1382       F  0.23839458  0.27153416  0.92196582    -0.16030
F1383       F  0.24552162  0.35653274  0.05040765    -0.16030
F1384       F  0.26064423  0.28212963  0.05459393    -0.13670
C1385       C  0.17710890  0.43966364  0.73520667     0.24350
C1386       C  0.19815629  0.47094403  0.74653533    -0.23760
C1387       C  0.17931384  0.50514751  0.75283053     0.19250
C1388       C  0.14014656  0.50699203  0.75295162     0.24290
C1389       C  0.11846341  0.47514907  0.74511721    -0.23710
C1390       C  0.13743460  0.44174017  0.73468297     0.19190
F1391       F  0.11763234  0.41002618  0.72828982    -0.13670
F1392       F  0.19468168  0.40620209  0.72852487    -0.16030
F1393       F  0.12401629  0.53812014  0.76751607    -0.16030
F1394       F  0.19885746  0.53587070  0.76354952    -0.13670
C1395       C  0.97869993  0.31141207  0.73444737     0.24350
C1396       C  0.00920525  0.28743337  0.74448079    -0.23760
C1397       C  0.04289691  0.30389293  0.75681371     0.19250
C1398       C  0.04423120  0.34253900  0.76436759     0.24290
C1399       C  0.01238716  0.36578420  0.75820851    -0.23710
C1400       C  0.98039027  0.35034574  0.74100196     0.19190
F1401       F  0.94911733  0.37210488  0.73476781    -0.13670
F1402       F  0.94597161  0.29687170  0.72176643    -0.16030
F1403       F  0.07571198  0.35674592  0.78040690    -0.16030
F1404       F  0.07332973  0.28181250  0.76558610    -0.13670
C1405       C  0.99664118  0.62258433  0.77076652     0.24350
C1406       C  0.02873708  0.59919829  0.76717290    -0.23760
C1407       C  0.05990561  0.61374513  0.74776497     0.19250
C1408       C  0.06085931  0.65189636  0.73692456     0.24290
C1409       C  0.03042967  0.67607936  0.74469102    -0.23710
C1410       C  0.99734087  0.66037463  0.75916757     0.19190
F1411       F  0.96665964  0.68260745  0.76541129    -0.13670
F1412       F  0.96523439  0.60959101  0.78775161    -0.16030
F1413       F  0.09264692  0.66585559  0.72156883    -0.16030
F1414       F  0.08944473  0.59130348  0.73892915    -0.13670
C1415       C  0.86062476  0.43327707  0.78380792     0.24350
C1416       C  0.88583943  0.46156501  0.77326660    -0.23760
C1417       C  0.87229413  0.49181296  0.75031216     0.19250
C1418       C  0.83376017  0.49609008  0.74236227     0.24290
C1419       C  0.80823528  0.47024676  0.75709261    -0.23710
C1420       C  0.82224548  0.43754571  0.77558423     0.19190
F1421       F  0.79814726  0.41144604  0.78907232    -0.13670
F1422       F  0.87243780  0.40292309  0.80463905    -0.16030
F1423       F  0.82112712  0.52731095  0.72342726    -0.16030
F1424       F  0.89597847  0.51848808  0.73721171    -0.13670
C1425       C  0.76259962  0.32767178  0.97281204     0.24350
C1426       C  0.76765423  0.34429271  0.00835716    -0.23760
C1427       C  0.76747691  0.32116314  0.04074247     0.19250
C1428       C  0.76655148  0.28219480  0.03759681     0.24290
C1429       C  0.76384985  0.26525101  0.00213310    -0.23710
C1430       C  0.76051171  0.28833356  0.96980162     0.19190
F1431       F  0.75790430  0.27273717  0.93518548    -0.13670
F1432       F  0.76272995  0.34906069  0.94084832    -0.16030
F1433       F  0.77083243  0.26105547  0.06942949    -0.16030
F1434       F  0.77042373  0.33610388  0.07567876    -0.13670
C1435       C  0.79937806  0.60093215  0.04941838     0.24350
C1436       C  0.78469936  0.58147676  0.01863797    -0.23760
C1437       C  0.76572616  0.60187717  0.98982351     0.19250
C1438       C  0.76352734  0.64127746  0.99082475     0.24290
C1439       C  0.77794067  0.66078302  0.02197621    -0.23710
C1440       C  0.79449385  0.63987727  0.05189841     0.19190
F1441       F  0.80797825  0.65736501  0.08284052    -0.13670
F1442       F  0.82029754  0.58262042  0.07617433    -0.16030
F1443       F  0.75028327  0.66015363  0.95993760    -0.16030
F1444       F  0.75287680  0.58402966  0.95873214    -0.13670
C1445       C  0.77720461  0.50374665  0.13701036     0.24350
C1446       C  0.76401141  0.47270848  0.11695641    -0.23760
C1447       C  0.74394887  0.44493327  0.13674856     0.19250
C1448       C  0.74094444  0.44638008  0.17641692     0.24290
C1449       C  0.75739646  0.47599742  0.19660547    -0.23710
C1450       C  0.77332008  0.50576672  0.17604694     0.19190
F1451       F  0.78888853  0.53518017  0.19428873    -0.13670
F1452       F  0.79719049  0.53060324  0.11919203    -0.16030
F1453       F  0.72557077  0.41700290  0.19524709    -0.16030
F1454       F  0.73111071  0.41432647  0.11834167    -0.13670
C1455       C  0.78170510  0.52360448  0.81866713     0.24350
C1456       C  0.76189580  0.49273624  0.80417371    -0.23760
C1457       C  0.74445115  0.46803697  0.82930463     0.19250
C1458       C  0.74932886  0.47221070  0.86796019     0.24290
C1459       C  0.77380417  0.49980378  0.88240188    -0.23710
C1460       C  0.78821761  0.52678326  0.85741410     0.19190
F1461       F  0.81072374  0.55461218  0.86997770    -0.13670
F1462       F  0.79759015  0.54895767  0.79500179    -0.16030
F1463       F  0.73236672  0.44690112  0.89094189    -0.16030
F1464       F  0.72623244  0.43726176  0.81680764    -0.13670
C1465       C  0.28754857  0.42408175  0.64202331     0.24350
C1466       C  0.28612986  0.45688995  0.61935736    -0.23760
C1467       C  0.26843512  0.48960174  0.63383202     0.19250
C1468       C  0.25653645  0.49057175  0.67128729     0.24290
C1469       C  0.26224671  0.45909908  0.69499324    -0.23710
C1470       C  0.27550475  0.42519566  0.67937157     0.19190
F1471       F  0.27979689  0.39382280  0.70131469    -0.13670
F1472       F  0.30261856  0.39141299  0.62894538    -0.16030
F1473       F  0.24270123  0.52335324  0.68532616    -0.16030
F1474       F  0.26422614  0.52140478  0.61245526    -0.13670
C1475       C  0.24528757  0.48703288  0.37212108     0.24350
C1476       C  0.26492874  0.45770159  0.39125580    -0.23760
C1477       C  0.27607993  0.42588263  0.37046679     0.19250
C1478       C  0.27109728  0.42470687  0.33152768     0.24290
C1479       C  0.25580663  0.45577956  0.31183130    -0.23710
C1480       C  0.24108444  0.48624798  0.33257162     0.19190
F1481       F  0.22626181  0.51693402  0.31441033    -0.13670
F1482       F  0.23452845  0.51848451  0.39083694    -0.16030
F1483       F  0.28502656  0.39461548  0.31259294    -0.16030
F1484       F  0.29612741  0.39756141  0.38708343    -0.13670
C1485       C  0.26192899  0.65069271  0.50633878     0.24350
C1486       C  0.27751889  0.67496595  0.47938574    -0.23760
C1487       C  0.29542157  0.65914417  0.44790254     0.19250
C1488       C  0.30073508  0.62002208  0.44526270     0.24290
C1489       C  0.28813236  0.59598168  0.47411914    -0.23710
C1490       C  0.26692490  0.61166554  0.50361822     0.19190
F1491       F  0.25269329  0.58934964  0.53118301    -0.13670
F1492       F  0.24534278  0.66469575  0.53751464    -0.16030
F1493       F  0.32084178  0.60609211  0.41607718    -0.16030
F1494       F  0.31031542  0.68180206  0.42104056    -0.13670
C1495       C  0.28841589  0.33917592  0.46542375     0.24350
C1496       C  0.27432114  0.36348160  0.49328949    -0.23760
C1497       C  0.25363356  0.34768511  0.52307613     0.19250
C1498       C  0.25076092  0.30819511  0.52673072     0.24290
C1499       C  0.26758882  0.28428951  0.50004792    -0.23710
C1500       C  0.28401574  0.30040174  0.46816861     0.19190
F1501       F  0.29928633  0.27824086  0.44119820    -0.13670
F1502       F  0.31083263  0.35223453  0.43777996    -0.16030
F1503       F  0.23478458  0.29334615  0.55800088    -0.16030
F1504       F  0.24037396  0.36990865  0.55100149    -0.13670
C1505       C  0.56498515  0.61461439  0.71137430     0.24350
C1506       C  0.53604270  0.59119377  0.72400110    -0.23760
C1507       C  0.50607425  0.60783271  0.74431614     0.19250
C1508       C  0.50319307  0.64695372  0.74838431     0.24290
C1509       C  0.53044693  0.67055073  0.73297114    -0.23710
C1510       C  0.56222415  0.65383910  0.71593095     0.19190
F1511       F  0.58972851  0.67573846  0.70169392    -0.13670
F1512       F  0.59476080  0.59999895  0.69248038    -0.16030
F1513       F  0.47190182  0.66182343  0.76442559    -0.16030
F1514       F  0.47816105  0.58647384  0.75870978    -0.13670
C1515       C  0.64615379  0.43156767  0.74174620     0.24350
C1516       C  0.62197519  0.46296102  0.74421744    -0.23760
C1517       C  0.63723456  0.49824278  0.75328133     0.19250
C1518       C  0.67633685  0.50283548  0.75484893     0.24290
C1519       C  0.70056703  0.47198284  0.74873896    -0.23710
C1520       C  0.68507875  0.43590902  0.74478446     0.19190
F1521       F  0.70775151  0.40499526  0.74196638    -0.13670
F1522       F  0.63214402  0.39709721  0.73405622    -0.16030
F1523       F  0.69044015  0.53781452  0.75944790    -0.16030
F1524       F  0.61457276  0.52912674  0.75667018    -0.13670
C1525       C  0.36643051  0.43224427  0.75070573     0.24350
C1526       C  0.38514967  0.46203330  0.73258425    -0.23760
C1527       C  0.36541020  0.49631573  0.72664520     0.19250
C1528       C  0.32700648  0.49913517  0.73443487     0.24290
C1529       C  0.30731745  0.46760224  0.74762198    -0.23710
C1530       C  0.32780127  0.43499747  0.75809789     0.19190
F1531       F  0.30978023  0.40464305  0.77237475    -0.13670
F1532       F  0.38518984  0.40034800  0.76113804    -0.16030
F1533       F  0.30820322  0.53164655  0.72543222    -0.16030
F1534       F  0.38256005  0.52635506  0.71061064    -0.13670
C1535       C  0.53216471  0.33790973  0.76913136     0.24350
C1536       C  0.50043423  0.35987273  0.75847717    -0.23760
C1537       C  0.46700363  0.34129230  0.74909900     0.19250
C1538       C  0.46633756  0.30226156  0.74607728     0.24290
C1539       C  0.49913717  0.28079178  0.75214626    -0.23710
C1540       C  0.53140044  0.29841120  0.76643011     0.19190
F1541       F  0.56331171  0.27794414  0.77354203    -0.13670
F1542       F  0.56513433  0.35487216  0.77742534    -0.16030
F1543       F  0.43474773  0.28584800  0.73263892    -0.16030
F1544       F  0.43673299  0.36086256  0.73598811    -0.13670
C1545       C  0.77475734  0.59123735  0.52330086     0.24350
C1546       C  0.75675552  0.57834430  0.49040840    -0.23760
C1547       C  0.74828222  0.60394290  0.46112432     0.19250
C1548       C  0.75496310  0.64214450  0.46569622     0.24290
C1549       C  0.76778326  0.65560342  0.50052028    -0.23710
C1550       C  0.77968396  0.62989274  0.52856656     0.19190
F1551       F  0.79244088  0.64235663  0.56227298    -0.13670
F1552       F  0.78304761  0.56708433  0.55225716    -0.16030
F1553       F  0.74513021  0.66648101  0.43739698    -0.16030
F1554       F  0.73035566  0.59254194  0.42947684    -0.13670
C1555       C  0.74630572  0.45069177  0.63676211     0.24350
C1556       C  0.73789032  0.48568061  0.61869152    -0.23760
C1557       C  0.73764370  0.51852148  0.64048283     0.19250
C1558       C  0.74249132  0.51600395  0.67963113     0.24290
C1559       C  0.74783778  0.48076669  0.69764511    -0.23710
C1560       C  0.75156268  0.44844612  0.67573940     0.19190
F1561       F  0.75874182  0.41434512  0.69215622    -0.13670
F1562       F  0.74760281  0.41805319  0.61716815    -0.16030
F1563       F  0.74012390  0.54789375  0.70026400    -0.16030
F1564       F  0.73149767  0.55291455  0.62421624    -0.13670
C1565       C  0.76575722  0.28965585  0.52192992     0.24350
C1566       C  0.75163311  0.26497501  0.49492802    -0.23760
C1567       C  0.73814404  0.27934161  0.46029197     0.19250
C1568       C  0.73492657  0.31808904  0.45428062     0.24290
C1569       C  0.74563406  0.34298165  0.48287051    -0.23710
C1570       C  0.76317193  0.32837013  0.51580366     0.19190
F1571       F  0.77591320  0.35141373  0.54324038    -0.13670
F1572       F  0.77954815  0.27678701  0.55542066    -0.16030
F1573       F  0.71882610  0.33092040  0.42164359    -0.16030
F1574       F  0.72512009  0.25575735  0.43347728    -0.13670
C1575       C  0.77372219  0.44115865  0.32525560     0.24350
C1576       C  0.75939307  0.47358438  0.30645301    -0.23760
C1577       C  0.75524728  0.50706333  0.32663532     0.19250
C1578       C  0.76109711  0.50717380  0.36556787     0.24290
C1579       C  0.76947193  0.47346415  0.38538137    -0.23710
C1580       C  0.77846921  0.44103787  0.36463953     0.19190
F1581       F  0.78630577  0.40793802  0.38285077    -0.13670
F1582       F  0.77928273  0.40866511  0.30614837    -0.16030
F1583       F  0.75256367  0.53893637  0.38469364    -0.16030
F1584       F  0.74252264  0.53903795  0.30901798    -0.13670
C1585       C  0.65474252  0.71382728  0.48940809     0.24350
C1586       C  0.63806128  0.69743758  0.52163629    -0.23760
C1587       C  0.66159087  0.68705579  0.55227443     0.19250
C1588       C  0.70076343  0.68964650  0.54933137     0.24290
C1589       C  0.71732754  0.70277907  0.51591974    -0.23710
C1590       C  0.69388452  0.71639674  0.48663099     0.19190
F1591       F  0.70877347  0.73000411  0.45425899    -0.13670
F1592       F  0.63342738  0.72576417  0.45950571    -0.16030
F1593       F  0.72275380  0.67748417  0.57861497    -0.16030
F1594       F  0.64702045  0.67245174  0.58438909    -0.13670
C1595       C  0.53589998  0.73201836  0.62281213     0.24350
C1596       C  0.50422791  0.71409822  0.60776160    -0.23760
C1597       C  0.47491347  0.70393113  0.63185997     0.19250
C1598       C  0.47884983  0.70813006  0.67073157     0.24290
C1599       C  0.51268447  0.72126463  0.68614615    -0.23710
C1600       C  0.54044946  0.73489225  0.66180479     0.19190
F1601       F  0.57382865  0.74683788  0.67545082    -0.13670
F1602       F  0.56484911  0.74195477  0.60026114    -0.16030
F1603       F  0.45118836  0.69562386  0.69358907    -0.16030
F1604       F  0.44391691  0.68684921  0.61806826    -0.13670
C1605       C  0.34875632  0.73846265  0.47192781     0.24350
C1606       C  0.32451046  0.72288876  0.49883239    -0.23760
C1607       C  0.34035190  0.70437510  0.53061864     0.19250
C1608       C  0.37910599  0.69720733  0.53292770     0.24290
C1609       C  0.40299958  0.70999415  0.50438673    -0.23710
C1610       C  0.38776690  0.73266953  0.47506663     0.19190
F1611       F  0.40999832  0.74499820  0.44672421    -0.13670
F1612       F  0.33469725  0.75502777  0.44013635    -0.16030
F1613       F  0.39286710  0.67514385  0.56149747    -0.16030
F1614       F  0.31783163  0.68964855  0.55751818    -0.13670
C1615       C  0.46421561  0.69064687  0.35151718     0.24350
C1616       C  0.49520868  0.70026971  0.37429553    -0.23760
C1617       C  0.52622320  0.71796569  0.35746389     0.19250
C1618       C  0.52783289  0.72214480  0.31837291     0.24290
C1619       C  0.49843073  0.70903329  0.29576049    -0.23710
C1620       C  0.46595319  0.69497262  0.31258818     0.19190
F1621       F  0.43678105  0.68313283  0.29104197    -0.13670
F1622       F  0.43306707  0.67485689  0.36644864    -0.16030
F1623       F  0.55934153  0.73617072  0.30255421    -0.16030
F1624       F  0.55596325  0.72935502  0.37848124    -0.13670
C1625       C  0.68309642  0.44275492  0.28167125     0.24350
C1626       C  0.70231242  0.47202447  0.26346981    -0.23760
C1627       C  0.68111187  0.50319612  0.24942554     0.19250
C1628       C  0.64173154  0.50537760  0.25485627     0.24290
C1629       C  0.62328584  0.47698712  0.27532563    -0.23710
C1630       C  0.64445696  0.44549152  0.28806636     0.19190
F1631       F  0.62788057  0.41731284  0.30759891    -0.13670
F1632       F  0.70209957  0.41169331  0.29465429    -0.16030
F1633       F  0.62199249  0.53582999  0.24156447    -0.16030
F1634       F  0.69869587  0.53234059  0.23234930    -0.13670
C1635       C  0.32771986  0.43733291  0.24823354     0.24350
C1636       C  0.30412897  0.46642249  0.26138240    -0.23760
C1637       C  0.31833858  0.50248074  0.26642431     0.19250
C1638       C  0.35622436  0.50896178  0.26101341     0.24290
C1639       C  0.38114096  0.47864837  0.25369418    -0.23710
C1640       C  0.36639953  0.44322780  0.24497020     0.19190
F1641       F  0.38951115  0.41367428  0.23674904    -0.13670
F1642       F  0.31373123  0.40274343  0.24109389    -0.16030
F1643       F  0.36914058  0.54432369  0.26661201    -0.16030
F1644       F  0.29579025  0.53114280  0.27825510    -0.13670
C1645       C  0.55888083  0.32508260  0.27963848     0.24350
C1646       C  0.53038991  0.35043003  0.26752331    -0.23760
C1647       C  0.49961622  0.33618974  0.24664487     0.19250
C1648       C  0.49552668  0.29759386  0.24175630     0.24290
C1649       C  0.52260948  0.27211478  0.25621681    -0.23710
C1650       C  0.55519971  0.28633700  0.27360675     0.19190
F1651       F  0.58276230  0.26254377  0.28648803    -0.13670
F1652       F  0.58943352  0.33741347  0.29880185    -0.16030
F1653       F  0.46320845  0.28514949  0.22590166    -0.16030
F1654       F  0.47168922  0.35921707  0.23291264    -0.13670
C1655       C  0.48062410  0.60433923  0.22652622     0.24350
C1656       C  0.50970480  0.58459786  0.24548389    -0.23760
C1657       C  0.54086251  0.60407611  0.25917522     0.19250
C1658       C  0.54090091  0.64330373  0.25785474     0.24290
C1659       C  0.50934915  0.66336222  0.24367349    -0.23710
C1660       C  0.48012019  0.64369331  0.22607155     0.19190
F1661       F  0.44884325  0.66217632  0.21307240    -0.13670
F1662       F  0.44999759  0.58578043  0.21377526    -0.16030
F1663       F  0.56985670  0.66170274  0.27421830    -0.16030
F1664       F  0.56878605  0.58533283  0.27831967    -0.13670
C1665       C  0.53201804  0.26735558  0.63782794     0.24350
C1666       C  0.50107943  0.25708842  0.61549844    -0.23760
C1667       C  0.47185724  0.23688869  0.63231901     0.19250
C1668       C  0.47256143  0.22940598  0.67143302     0.24290
C1669       C  0.50319562  0.24089218  0.69392987    -0.23710
C1670       C  0.53334249  0.25884283  0.67625004     0.19190
F1671       F  0.56375315  0.26966362  0.69654578    -0.13670
F1672       F  0.56097280  0.28653641  0.62265738    -0.16030
F1673       F  0.44225926  0.21330589  0.68752861    -0.16030
F1674       F  0.44192982  0.22604629  0.61132167    -0.13670
C1675       C  0.46898042  0.23316069  0.31440693     0.24350
C1676       C  0.50387030  0.22110577  0.30053419    -0.23760
C1677       C  0.53238136  0.20954934  0.32583137     0.19250
C1678       C  0.52832602  0.21622926  0.36434877     0.24290
C1679       C  0.49527354  0.23390516  0.37771611    -0.23710
C1680       C  0.46453009  0.23929345  0.35271611     0.19190
F1681       F  0.43102271  0.25349992  0.36459941    -0.13670
F1682       F  0.44048270  0.24308555  0.29036223    -0.16030
F1683       F  0.55775654  0.20807301  0.38785875    -0.16030
F1684       F  0.56531088  0.19503103  0.31291377    -0.13670
C1685       C  0.33614126  0.24997749  0.54202598     0.24350
C1686       C  0.31578628  0.23267186  0.51302874    -0.23760
C1687       C  0.33579565  0.21468106  0.48404036     0.19250
C1688       C  0.37509256  0.21761303  0.48206936     0.24290
C1689       C  0.39470551  0.23892041  0.50872684    -0.23710
C1690       C  0.37516579  0.25346005  0.53967668     0.19190
F1691       F  0.39337265  0.27456071  0.56554558    -0.13670
F1692       F  0.31768474  0.26727488  0.57050468    -0.16030
F1693       F  0.39316919  0.20420653  0.45135184    -0.16030
F1694       F  0.31712291  0.19889484  0.45488690    -0.13670
C1695       C  0.63842921  0.21776315  0.49557974     0.24350
C1696       C  0.62666070  0.24148009  0.52528177    -0.23760
C1697       C  0.65303429  0.24985560  0.55350018     0.19250
C1698       C  0.69090129  0.23860426  0.54967597     0.24290
C1699       C  0.70349876  0.22001749  0.51695008    -0.23710
C1700       C  0.67636092  0.20785950  0.49113914     0.19190
F1701       F  0.68673915  0.18999201  0.45927882    -0.13670
F1702       F  0.61370880  0.20620211  0.46886698    -0.16030
F1703       F  0.71586303  0.24862634  0.57670625    -0.16030
F1704       F  0.64290656  0.27103373  0.58345423    -0.13670
loop_ 
_geom_bond_atom_site_label_1 
_geom_bond_atom_site_label_2 
_geom_bond_distance 
_geom_bond_site_symmetry_2 
_ccdc_geom_bond_type 
O1            C9   1.252       .  A
O1          Co21   1.894       .  S
O2           C10   1.256       .  A
O2          Co22   1.967       .  S
O3           C11   1.275       .  A
O3          Co23   2.046       .  S
O4           C12   1.274       .  A
O4          Co24   2.032       .  S
O5           C11   1.253       .  A
O5          Co22   1.949       .  S
O6           C12   1.245       .  A
O6          Co21   1.940       .  S
O7           C10   1.260       .  A
O7          Co24   1.987       .  S
O8            C9   1.283       .  A
O8          Co23   2.119       .  S
C9           C96   1.478       .  S
C10        C1679   1.481       .  S
C11        C1696   1.497       .  S
C12          C38   1.463       .  S
O13          C26   1.289       .  A
O13         Co21   2.057       .  S
O14          C27   1.275       .  A
O14         Co22   2.036       .  S
O15          C28   1.277       .  A
O15         Co23   1.946       .  S
O16          C29   1.260       .  A
O16         Co24   1.958       .  S
O17          C29   1.274       .  A
O17         Co22   2.033       .  S
O18          C28   1.295       .  A
O18         Co21   2.080       .  S
O19          C26   1.247       .  A
O19         Co24   1.918       .  S
O20          C27   1.264       .  A
O20         Co23   1.969       .  S
Co21         O25   1.998       .  S
Co22         O25   2.053       .  S
Co23         O25   2.061       .  S
Co24         O25   2.071       .  S
C26         C154   1.451       .  S
C27        C1666   1.482       .  S
C28         C144   1.477       .  S
C29        C1689   1.475       .  S
O30          C38   1.229       .  A
O30         Co50   1.969       .  S
O31          C39   1.261       .  A
O31         Co51   1.948       .  S
O32          C40   1.277       .  A
O32         Co52   2.051       .  S
O33          C41   1.258       .  A
O33         Co53   1.945       .  S
O34          C40   1.270       .  A
O34         Co51   1.993       .  S
O35          C41   1.278       .  A
O35         Co50   2.028       .  S
O36          C39   1.266       .  A
O36         Co53   1.981       .  S
O37          C38   1.279       .  A
O37         Co52   2.075       .  S
C39        C1639   1.470       .  S
C40         C157   1.480       .  S
C41        C1646   1.489       .  S
O42          C55   1.262       .  A
O42         Co50   1.980       .  S
O43          C56   1.272       .  A
O43         Co51   2.032       .  S
O44          C57   1.277       .  A
O44         Co52   1.962       .  S
O45          C58   1.257       .  A
O45         Co53   1.983       .  S
O46          C58   1.253       .  A
O46         Co51   1.947       .  S
O47          C57   1.301       .  A
O47         Co50   2.031       .  S
O48          C55   1.271       .  A
O48         Co53   2.034       .  S
O49          C56   1.273       .  A
O49         Co52   1.930       .  S
Co50         O54   2.014       .  S
Co51         O54   2.092       .  S
Co52         O54   1.940       .  S
Co53         O54   2.079       .  S
C55        C1629   1.490       .  S
C56          C67   1.444       .  S
C57         C115   1.454       .  S
C58        C1656   1.455       .  S
O59          C67   1.241       .  A
O59         Co79   1.941       .  S
O60          C68   1.268       .  A
O60         Co80   1.968       .  S
O61          C69   1.265       .  A
O61         Co81   1.992       .  S
O62          C70   1.243       .  A
O62         Co82   1.977       .  S
O63          C69   1.262       .  A
O63         Co80   1.971       .  S
O64          C70   1.256       .  A
O64         Co79   2.005       .  S
O65          C68   1.281       .  A
O65         Co82   2.027       .  S
O66          C67   1.252       .  A
O66         Co81   1.988       .  S
C68        C1586   1.494       .  S
C69        C1616   1.478       .  S
C70         C113   1.475       .  S
O71          C84   1.263       .  A
O71         Co79   1.960       .  S
O72          C85   1.268       .  A
O72         Co80   2.024       .  S
O73          C86   1.267       .  A
O73         Co81   1.925       .  S
O74          C87   1.250       .  A
O74         Co82   1.988       .  S
O75          C87   1.262       .  A
O75         Co80   2.014       .  S
O76          C86   1.288       .  A
O76         Co79   2.058       .  S
O77          C84   1.283       .  A
O77         Co82   1.972       .  S
O78          C85   1.258       .  A
O78         Co81   1.989       .  S
Co79         O83   2.239       .  S
Co80         O83   2.106       .  S
Co81         O83   1.944       .  S
Co82         O83   1.974       .  S
C84         C128   1.465       .  S
C85        C1609   1.479       .  S
C86         C171   1.467       .  S
C87        C1596   1.471       .  S
O88          C96   1.262       .  A
O88        Co108   1.962       .  S
O89          C97   1.256       .  A
O89        Co109   1.956       .  S
O90          C98   1.263       .  A
O90        Co110   1.998       .  S
O91          C99   1.293       .  A
O91        Co111   2.126       .  S
O92          C98   1.254       .  A
O92        Co109   1.944       .  S
O93          C99   1.268       .  A
O93        Co108   1.890       .  S
O94          C97   1.271       .  A
O94        Co111   2.022       .  S
O95          C96   1.283       .  A
O95        Co110   2.062       .  S
C97        C1556   1.487       .  S
C98        C1569   1.471       .  S
C99         C142   1.488       .  S
O100        C113   1.290       .  A
O100       Co108   2.088       .  S
O101        C114   1.275       .  A
O101       Co109   2.058       .  S
O102        C115   1.239       .  A
O102       Co110   1.923       .  S
O103        C116   1.266       .  A
O103       Co111   1.964       .  S
O104        C116   1.273       .  A
O104       Co109   2.015       .  S
O105        C115   1.267       .  A
O105       Co108   2.041       .  S
O106        C113   1.272       .  A
O106       Co111   1.918       .  S
O107        C114   1.248       .  A
O107       Co110   1.932       .  S
Co108       O112   2.002       .  S
Co109       O112   2.051       .  S
Co110       O112   2.042       .  S
Co111       O112   2.029       .  S
C114       C1579   1.474       .  S
C116       C1546   1.469       .  S
O117        C125   1.271       .  A
O117       Co137   1.988       .  S
O118        C126   1.259       .  A
O118       Co138   1.961       .  S
O119        C127   1.278       .  A
O119       Co139   2.048       .  S
O120        C128   1.282       .  A
O120       Co140   2.077       .  S
O121        C127   1.260       .  A
O121       Co138   1.955       .  S
O122        C128   1.277       .  A
O122       Co137   1.896       .  S
O123        C126   1.276       .  A
O123       Co140   2.035       .  S
O124        C125   1.282       .  A
O124       Co139   2.053       .  S
C125        C173   1.504       .  S
C126       C1506   1.495       .  S
C127       C1526   1.488       .  S
O129        C142   1.279       .  A
O129       Co137   2.073       .  S
O130        C143   1.270       .  A
O130       Co138   2.051       .  S
O131        C144   1.252       .  A
O131       Co139   1.970       .  S
O132        C145   1.266       .  A
O132       Co140   1.959       .  S
O133        C145   1.278       .  A
O133       Co138   2.038       .  S
O134        C144   1.281       .  A
O134       Co137   2.046       .  S
O135        C142   1.276       .  A
O135       Co140   1.950       .  S
O136        C143   1.245       .  A
O136       Co139   1.948       .  S
Co137       O141   1.997       .  S
Co138       O141   2.058       .  S
Co139       O141   2.019       .  S
Co140       O141   2.021       .  S
C143       C1536   1.474       .  S
C145       C1516   1.476       .  S
O146        C154   1.261       .  A
O146       Co166   2.036       .  S
O147        C155   1.272       .  A
O147       Co167   2.073       .  S
O148        C156   1.247       .  A
O148       Co168   1.936       .  S
O149        C157   1.247       .  A
O149       Co169   1.941       .  S
O150        C156   1.273       .  A
O150       Co167   2.068       .  S
O151        C157   1.280       .  A
O151       Co166   2.072       .  S
O152        C155   1.244       .  A
O152       Co169   1.941       .  S
O153        C154   1.251       .  A
O153       Co168   1.920       .  S
C155       C1476   1.491       .  S
C156       C1496   1.488       .  S
O158        C171   1.256       .  A
O158       Co166   1.953       .  S
O159        C172   1.253       .  A
O159       Co167   1.953       .  S
O160        C173   1.275       .  A
O160       Co168   2.047       .  S
O161        C174   1.270       .  A
O161       Co169   2.038       .  S
O162        C174   1.254       .  A
O162       Co167   1.950       .  S
O163        C173   1.266       .  A
O163       Co166   1.989       .  S
O164        C171   1.269       .  A
O164       Co169   2.040       .  S
O165        C172   1.269       .  A
O165       Co168   2.034       .  S
Co166       O170   2.143       .  S
Co167       O170   2.143       .  S
Co168       O170   2.084       .  S
Co169       O170   2.120       .  S
C172       C1466   1.489       .  S
C174       C1489   1.486       .  S
O175        C183   1.280   1_554  A
O175       Co195   1.974       .  S
O176        C184   1.270       .  A
O176       Co196   2.045   1_554  S
O177        C185   1.257       .  A
O177       Co197   1.975   1_554  S
O178        C186   1.279       .  A
O178       Co198   2.060       .  S
O179        C185   1.265       .  A
O179       Co196   2.008   1_554  S
O180        C186   1.261       .  A
O180       Co195   1.904       .  S
O181        C184   1.254       .  A
O181       Co198   1.964       .  S
O182        C183   1.289       .  A
O182       Co197   2.018       .  S
C183        C328   1.446       .  S
C184       C1446   1.491       .  S
C185       C1436   1.473       .  S
C186        C270   1.429       .  S
O187        C200   1.289       .  A
O187       Co195   2.073       .  S
O188        C201   1.261       .  A
O188       Co196   1.945       .  S
O189        C202   1.249       .  A
O189       Co197   2.012       .  S
O190        C203   1.268       .  A
O190       Co198   1.998       .  S
O191        C203   1.261   1_556  A
O191       Co196   1.970       .  S
O192        C202   1.269       .  A
O192       Co195   2.038   1_556  S
O193        C200   1.266       .  A
O193       Co198   1.948       .  S
O194        C201   1.278       .  A
O194       Co197   2.024       .  S
Co195       O199   1.883   1_554  S
Co196       O199   2.069       .  S
Co197       O199   2.060       .  S
Co198       O199   2.102   1_554  S
C200        C299   1.458       .  S
C201       C1459   1.486       .  S
C202        C212   1.485       .  S
C203       C1426   1.480       .  S
O204        C212   1.303       .  A
O204       Co224   2.131       .  S
O205        C213   1.279       .  A
O205       Co225   2.056       .  S
O206        C214   1.280   1_655  A
O206       Co226   2.017       .  S
O207        C215   1.255       .  A
O207       Co227   1.967       .  S
O208        C214   1.283       .  A
O208       Co225   2.053       .  S
O209        C215   1.264       .  A
O209       Co224   2.012       .  S
O210        C213   1.258   1_655  A
O210       Co227   1.954       .  S
O211        C212   1.267       .  A
O211       Co226   1.886       .  S
C213       C1406   1.493       .  S
C214        C331   1.516       .  S
C215       C1416   1.488       .  S
O216        C229   1.266       .  A
O216       Co224   1.977   1_455  S
O217        C230   1.244       .  A
O217       Co225   1.963       .  S
O218        C231   1.302   1_455  A
O218       Co226   2.139   1_455  S
O219        C232   1.271       .  A
O219       Co227   2.062   1_455  S
O220        C232   1.242       .  A
O220       Co225   1.949       .  S
O221        C231   1.262       .  A
O221       Co224   1.919       .  S
O222        C229   1.277   1_655  A
O222       Co227   2.036       .  S
O223        C230   1.263       .  A
O223       Co226   2.011   1_455  S
Co224       O228   2.034   1_655  S
Co225       O228   2.028       .  S
Co226       O228   2.032   1_655  S
Co227       O228   2.082   1_655  S
C229       C1399   1.483       .  S
C230        C260   1.458       .  S
C231        C318   1.494       .  S
C232       C1389   1.482       .  S
O233        C241   1.246       .  A
O233       Co253   1.823       .  S
O234        C242   1.256       .  A
O234       Co254   1.950       .  S
O235        C243   1.265       .  A
O235       Co255   2.010       .  S
O236        C244   1.279       .  A
O236       Co256   2.075       .  S
O237        C243   1.248   1_554  A
O237       Co254   1.939       .  S
O238        C244   1.257       .  A
O238       Co253   1.959       .  S
O239        C242   1.268       .  A
O239       Co256   2.005       .  S
O240        C241   1.297   1_556  A
O240       Co255   2.139       .  S
C241        C316   1.447   1_554  S
C242       C1356   1.476       .  S
C243       C1379   1.473       .  S
C244        C288   1.501       .  S
O245        C258   1.245       .  A
O245       Co253   1.978       .  S
O246        C259   1.278       .  A
O246       Co254   2.051   1_556  S
O247        C260   1.270       .  A
O247       Co255   1.912       .  S
O248        C261   1.249   1_554  A
O248       Co256   1.942       .  S
O249        C261   1.270   1_554  A
O249       Co254   2.035       .  S
O250        C260   1.283       .  A
O250       Co253   2.082   1_556  S
O251        C258   1.242       .  A
O251       Co256   1.931       .  S
O252        C259   1.263       .  A
O252       Co255   1.974       .  S
Co253       O257   1.987       .  S
Co254       O257   2.062       .  S
Co255       O257   2.056   1_556  S
Co256       O257   2.063       .  S
C258        C345   1.415   1_554  S
C259       C1346   1.492       .  S
C261       C1366   1.477       .  S
O262        C270   1.236       .  A
O262       Co282   1.926       .  S
O263        C271   1.265       .  A
O263       Co283   1.973   1_655  S
O264        C272   1.286       .  A
O264       Co284   2.100       .  S
O265        C273   1.262       .  A
O265       Co285   2.031   1_655  S
O266        C272   1.265       .  A
O266       Co283   1.912       .  S
O267        C273   1.244       .  A
O267       Co282   1.953       .  S
O268        C271   1.279   1_455  A
O268       Co285   2.042       .  S
O269        C270   1.265       .  A
O269       Co284   2.012   1_655  S
C271       C1336   1.484       .  S
C272        C302   1.473       .  S
C273       C1309   1.475       .  S
O274        C287   1.276       .  A
O274       Co282   2.024       .  S
O275        C288   1.299       .  A
O275       Co283   2.126       .  S
O276        C289   1.277   1_455  A
O276       Co284   1.993       .  S
O277        C290   1.248       .  A
O277       Co285   1.935       .  S
O278        C290   1.261       .  A
O278       Co283   2.007       .  S
O279        C289   1.284       .  A
O279       Co282   2.068       .  S
O280        C287   1.258   1_455  A
O280       Co285   1.922       .  S
O281        C288   1.274       .  A
O281       Co284   1.891       .  S
Co282       O286   2.001   1_655  S
Co283       O286   2.018       .  S
Co284       O286   2.036       .  S
Co285       O286   2.061       .  S
C287       C1326   1.474       .  S
C289        C347   1.515       .  S
C290       C1316   1.466       .  S
O291        C299   1.261   1_556  A
O291       Co311   2.019   1_655  S
O292        C300   1.278       .  A
O292       Co312   2.043   1_554  S
O293        C301   1.246   1_554  A
O293       Co313   1.948   1_554  S
O294        C302   1.261       .  A
O294       Co314   1.895       .  S
O295        C301   1.267       .  A
O295       Co312   2.035   1_655  S
O296        C302   1.301       .  A
O296       Co311   2.122   1_554  S
O297        C300   1.263   1_655  A
O297       Co314   1.961   1_655  S
O298        C299   1.247       .  A
O298       Co313   1.947   1_554  S
C300       C1299   1.476       .  S
C301       C1269   1.467       .  S
O303        C316   1.261       .  A
O303       Co311   1.824       .  S
O304        C317   1.250   1_455  A
O304       Co312   1.917       .  S
O305        C318   1.281       .  A
O305       Co313   2.056       .  S
O306        C319   1.259       .  A
O306       Co314   2.012       .  S
O307        C319   1.245   1_556  A
O307       Co312   1.950       .  S
O308        C318   1.264   1_455  A
O308       Co311   1.973       .  S
O309        C316   1.299   1_554  A
O309       Co314   2.125       .  S
O310        C317   1.272       .  A
O310       Co313   2.023       .  S
Co311       O315   2.002   1_455  S
Co312       O315   2.057   1_455  S
Co313       O315   2.038       .  S
Co314       O315   2.026   1_454  S
C317       C1276   1.474       .  S
C319       C1286   1.480       .  S
O320        C328   1.263       .  A
O320       Co340   1.842   1_655  S
O321        C329   1.261       .  A
O321       Co341   1.953       .  S
O322        C330   1.261       .  A
O322       Co342   1.996       .  S
O323        C331   1.284       .  A
O323       Co343   2.067       .  S
O324        C330   1.258   1_556  A
O324       Co341   1.972   1_655  S
O325        C331   1.270   1_655  A
O325       Co340   1.995   1_655  S
O326        C329   1.275       .  A
O326       Co343   2.024       .  S
O327        C328   1.299   1_554  A
O327       Co342   2.131       .  S
C329       C1249   1.488       .  S
C330       C1226   1.472       .  S
O332        C345   1.250       .  A
O332       Co340   1.979       .  S
O333        C346   1.278       .  A
O333       Co341   2.032   1_554  S
O334        C347   1.264       .  A
O334       Co342   1.943       .  S
O335        C348   1.244   1_554  A
O335       Co343   1.944   1_554  S
O336        C348   1.270       .  A
O336       Co341   2.054       .  S
O337        C347   1.299   1_455  A
O337       Co340   2.149   1_554  S
O338        C345   1.240   1_554  A
O338       Co343   1.927   1_554  S
O339        C346   1.270       .  A
O339       Co342   1.979   1_455  S
Co340       O344   2.022       .  S
Co341       O344   2.065       .  S
Co342       O344   2.017   1_654  S
Co343       O344   2.012       .  S
C346       C1256   1.483       .  S
C348       C1239   1.480       .  S
O349        C357   1.247       .  A
O349       Co369   1.952       .  S
O350        C358   1.273       .  A
O350       Co370   1.990       .  S
O351        C359   1.296       .  A
O351       Co371   2.124   1_554  S
O352        C360   1.263       .  A
O352       Co372   1.999       .  S
O353        C359   1.248       .  A
O353       Co370   1.961       .  S
O354        C360   1.256       .  A
O354       Co369   1.942       .  S
O355        C358   1.271       .  A
O355       Co372   1.978   1_554  S
O356        C357   1.279       .  A
O356       Co371   2.046       .  S
C357        C502   1.479       .  S
C358       C1206   1.472       .  S
C359        C444   1.510       .  S
C360       C1196   1.452       .  S
O361        C374   1.256       .  A
O361       Co369   1.984       .  S
O362        C375   1.268       .  A
O362       Co370   1.945       .  S
O363        C376   1.254       .  A
O363       Co371   1.833       .  S
O364        C377   1.251       .  A
O364       Co372   1.987       .  S
O365        C377   1.255       .  A
O365       Co370   2.013   1_556  S
O366        C376   1.299       .  A
O366       Co369   2.110       .  S
O367        C374   1.258       .  A
O367       Co372   1.989       .  S
O368        C375   1.274   1_556  A
O368       Co371   2.007       .  S
Co369       O373   2.137       .  S
Co370       O373   1.965   1_554  S
Co371       O373   1.981       .  S
Co372       O373   2.108       .  S
C374       C1216   1.486       .  S
C375        C473   1.451       .  S
C376        C405   1.447       .  S
C377       C1186   1.476       .  S
O378        C386   1.256   1_545  A
O378       Co398   2.010   1_545  S
O379        C387   1.266       .  A
O379       Co399   1.973   1_545  S
O380        C388   1.258       .  A
O380       Co400   1.947       .  S
O381        C389   1.301       .  A
O381       Co401   2.128       .  S
O382        C388   1.263       .  A
O382       Co399   1.995       .  S
O383        C389   1.257       .  A
O383       Co398   1.882   1_545  S
O384        C387   1.278       .  A
O384       Co401   2.022       .  S
O385        C386   1.252       .  A
O385       Co400   2.009       .  S
C386        C504   1.476       .  S
C387       C1166   1.485       .  S
C388       C1146   1.445       .  S
C389        C415   1.475       .  S
O390        C403   1.293       .  A
O390       Co398   2.083       .  S
O391        C404   1.264       .  A
O391       Co399   2.003       .  S
O392        C405   1.260       .  A
O392       Co400   1.970       .  S
O393        C406   1.246       .  A
O393       Co401   2.009   1_565  S
O394        C406   1.249       .  A
O394       Co399   2.002       .  S
O395        C405   1.265       .  A
O395       Co398   1.971       .  S
O396        C403   1.268   1_545  A
O396       Co401   1.930       .  S
O397        C404   1.260       .  A
O397       Co400   1.979       .  S
Co398       O402   2.010       .  S
Co399       O402   2.103       .  S
Co400       O402   2.099       .  S
Co401       O402   2.051   1_545  S
C403        C476   1.466       .  S
C404       C1179   1.483       .  S
C406       C1156   1.472       .  S
O407        C415   1.270       .  A
O407       Co427   1.995   1_556  S
O408        C416   1.300   1_556  A
O408       Co428   2.075       .  S
O409        C417   1.273       .  A
O409       Co429   1.884       .  S
O410        C418   1.252       .  A
O410       Co430   1.993       .  S
O411        C417   1.299       .  A
O411       Co428   2.076       .  S
O412        C418   1.272       .  A
O412       Co427   2.027       .  S
O413        C416   1.279       .  A
O413       Co430   1.899       .  S
O414        C415   1.267       .  A
O414       Co429   2.005       .  S
C416       C1109   1.472       .  S
C417       C1126   1.471       .  S
C418        C520   1.476       .  S
O419        C432   1.246       .  A
O419       Co427   1.946       .  S
O420        C433   1.255       .  A
O420       Co428   2.010       .  S
O421        C434   1.270       .  A
O421       Co429   2.023       .  S
O422        C435   1.241       .  A
O422       Co430   1.942       .  S
O423        C435   1.254       .  A
O423       Co428   2.012   1_554  S
O424        C434   1.252   1_554  A
O424       Co427   1.959       .  S
O425        C432   1.285       .  A
O425       Co430   2.093       .  S
O426        C433   1.243       .  A
O426       Co429   1.946       .  S
Co427       O431   2.029       .  S
Co428       O431   2.219   1_556  S
Co429       O431   1.949   1_556  S
Co430       O431   1.945       .  S
C432        C461   1.483       .  S
C433       C1116   1.463       .  S
C434        C490   1.459       .  S
C435       C1136   1.463       .  S
O436        C444   1.300       .  A
O436       Co456   2.114       .  S
O437        C445   1.274       .  A
O437       Co457   2.038       .  S
O438        C446   1.265       .  A
O438       Co458   1.962       .  S
O439        C447   1.253       .  A
O439       Co459   1.968   1_565  S
O440        C446   1.276       .  A
O440       Co457   2.028       .  S
O441        C447   1.265       .  A
O441       Co456   2.023       .  S
O442        C445   1.257       .  A
O442       Co459   1.950   1_565  S
O443        C444   1.275       .  A
O443       Co458   1.939       .  S
C445       C1086   1.467       .  S
C446       C1079   1.469       .  S
C447        C492   1.473       .  S
O448        C461   1.261       .  A
O448       Co456   1.985   1_545  S
O449        C462   1.250       .  A
O449       Co457   1.936       .  S
O450        C463   1.280       .  A
O450       Co458   2.081       .  S
O451        C464   1.264       .  A
O451       Co459   2.015       .  S
O452        C464   1.254       .  A
O452       Co457   1.957   1_545  S
O453        C463   1.262       .  A
O453       Co456   1.821       .  S
O454        C461   1.284       .  A
O454       Co459   2.037       .  S
O455        C462   1.274       .  A
O455       Co458   2.046       .  S
Co456       O460   1.997       .  S
Co457       O460   2.041       .  S
Co458       O460   2.043       .  S
Co459       O460   2.051   1_545  S
C462       C1096   1.492       .  S
C463        C521   1.427       .  S
C464       C1066   1.485       .  S
O465        C473   1.266   1_556  A
O465       Co485   1.961       .  S
O466        C474   1.252       .  A
O466       Co486   2.026       .  S
O467        C475   1.247       .  A
O467       Co487   1.958       .  S
O468        C476   1.269   1_545  A
O468       Co488   2.024       .  S
O469        C475   1.249   1_556  A
O469       Co486   1.976       .  S
O470        C476   1.258       .  A
O470       Co485   1.963       .  S
O471        C474   1.236       .  A
O471       Co488   1.947   1_565  S
O472        C473   1.269       .  A
O472       Co487   2.017       .  S
C474       C1046   1.467       .  S
C475       C1026   1.461       .  S
O477        C490   1.272       .  A
O477       Co485   2.026   1_545  S
O478        C491   1.304       .  A
O478       Co486   2.109   1_554  S
O479        C492   1.268       .  A
O479       Co487   1.992       .  S
O480        C493   1.274       .  A
O480       Co488   1.895       .  S
O481        C493   1.298       .  A
O481       Co486   2.058   1_545  S
O482        C492   1.259       .  A
O482       Co485   1.995   1_554  S
O483        C490   1.257       .  A
O483       Co488   1.980       .  S
O484        C491   1.268       .  A
O484       Co487   1.844       .  S
Co485       O489   2.061       .  S
Co486       O489   2.237       .  S
Co487       O489   1.949   1_554  S
Co488       O489   1.915   1_545  S
C491       C1056   1.467       .  S
C493       C1036   1.475       .  S
O494        C502   1.243   1_554  A
O494       Co514   1.968       .  S
O495        C503   1.270   1_545  A
O495       Co515   2.006       .  S
O496        C504   1.289       .  A
O496       Co516   2.060   1_556  S
O497        C505   1.265   1_556  A
O497       Co517   1.965       .  S
O498        C504   1.264   1_545  A
O498       Co515   1.968       .  S
O499        C505   1.281       .  A
O499       Co514   2.028       .  S
O500        C503   1.262       .  A
O500       Co517   1.950       .  S
O501        C502   1.266       .  A
O501       Co516   2.048   1_556  S
C503       C1006   1.467       .  S
C505        C996   1.496       .  S
O506        C519   1.262       .  A
O506       Co514   1.988       .  S
O507        C520   1.290   1_556  A
O507       Co515   2.121       .  S
O508        C521   1.279       .  A
O508       Co516   1.931       .  S
O509        C522   1.265   1_556  A
O509       Co517   2.009   1_545  S
O510        C522   1.255       .  A
O510       Co515   1.955   1_554  S
O511        C521   1.288       .  A
O511       Co514   1.989       .  S
O512        C519   1.263       .  A
O512       Co517   2.013   1_554  S
O513        C520   1.259       .  A
O513       Co516   1.904   1_545  S
Co514       O518   2.042   1_554  S
Co515       O518   2.120   1_545  S
Co516       O518   1.868   1_554  S
Co517       O518   2.071       .  S
C519       C1019   1.485       .  S
C522        C989   1.458       .  S
O523        C531   1.287       .  A
O523       Co543   1.930       .  S
O524        C532   1.262       .  A
O524       Co544   1.962       .  S
O525        C533   1.261       .  A
O525       Co545   1.999   1_455  S
O526        C534   1.275       .  A
O526       Co546   2.045       .  S
O527        C533   1.253       .  A
O527       Co544   1.982       .  S
O528        C534   1.265       .  A
O528       Co543   1.977       .  S
O529        C532   1.273       .  A
O529       Co546   2.023       .  S
O530        C531   1.305   1_655  A
O530       Co545   2.028       .  S
C531        C676   1.451   1_455  S
C532        C946   1.493       .  S
C533        C969   1.477       .  S
C534        C589   1.504       .  S
O535        C548   1.284       .  A
O535       Co543   2.059       .  S
O536        C549   1.273       .  A
O536       Co544   1.974   1_655  S
O537        C550   1.235       .  A
O537       Co545   2.021       .  S
O538        C551   1.251       .  A
O538       Co546   1.949       .  S
O539        C551   1.264       .  A
O539       Co544   2.014       .  S
O540        C550   1.245       .  A
O540       Co543   2.027   1_655  S
O541        C548   1.250       .  A
O541       Co546   1.951       .  S
O542        C549   1.286       .  A
O542       Co545   2.030       .  S
Co543       O547   2.072       .  S
Co544       O547   2.082       .  S
Co545       O547   2.011   1_655  S
Co546       O547   2.041       .  S
C548        C647   1.466       .  S
C549        C976   1.495       .  S
C550        C560   1.490       .  S
C551        C959   1.458       .  S
O552        C560   1.271       .  A
O552       Co572   2.035       .  S
O553        C561   1.265   1_545  A
O553       Co573   2.016       .  S
O554        C562   1.256       .  A
O554       Co574   1.917       .  S
O555        C563   1.252       .  A
O555       Co575   1.950       .  S
O556        C562   1.284       .  A
O556       Co573   2.120   1_565  S
O557        C563   1.262       .  A
O557       Co572   1.997       .  S
O558        C561   1.249       .  A
O558       Co575   1.945       .  S
O559        C560   1.262       .  A
O559       Co574   1.980       .  S
C561        C926   1.471       .  S
C562        C679   1.502       .  S
C563        C936   1.477       .  S
O564        C577   1.258       .  A
O564       Co572   1.963       .  S
O565        C578   1.272       .  A
O565       Co573   1.905       .  S
O566        C579   1.295       .  A
O566       Co574   2.071       .  S
O567        C580   1.275       .  A
O567       Co575   2.042   1_545  S
O568        C580   1.262       .  A
O568       Co573   1.970       .  S
O569        C579   1.252       .  A
O569       Co572   1.943       .  S
O570        C577   1.274       .  A
O570       Co575   2.043       .  S
O571        C578   1.305       .  A
O571       Co574   2.096   1_545  S
Co572       O576   2.076       .  S
Co573       O576   2.056   1_545  S
Co574       O576   2.002       .  S
Co575       O576   2.072       .  S
C577        C916   1.481       .  S
C578        C618   1.453       .  S
C579        C666   1.478       .  S
C580        C906   1.487       .  S
O581        C589   1.296       .  A
O581       Co601   2.122       .  S
O582        C590   1.267       .  A
O582       Co602   2.026       .  S
O583        C591   1.264       .  A
O583       Co603   1.977       .  S
O584        C592   1.238       .  A
O584       Co604   1.954   1_565  S
O585        C591   1.279       .  A
O585       Co602   2.041       .  S
O586        C592   1.253       .  A
O586       Co601   1.980       .  S
O587        C590   1.251       .  A
O587       Co604   1.936   1_565  S
O588        C589   1.261       .  A
O588       Co603   1.942       .  S
C590        C869   1.470       .  S
C591        C889   1.477       .  S
C592        C695   1.431       .  S
O593        C606   1.266       .  A
O593       Co601   2.008   1_545  S
O594        C607   1.251       .  A
O594       Co602   1.959       .  S
O595        C608   1.293       .  A
O595       Co603   2.122       .  S
O596        C609   1.272       .  A
O596       Co604   2.022       .  S
O597        C609   1.260       .  A
O597       Co602   1.958   1_545  S
O598        C608   1.263       .  A
O598       Co601   1.871       .  S
O599        C606   1.282       .  A
O599       Co604   2.081       .  S
O600        C607   1.255       .  A
O600       Co603   1.983       .  S
Co601       O605   2.035       .  S
Co602       O605   2.060       .  S
Co603       O605   2.041       .  S
Co604       O605   2.045   1_545  S
C606        C635   1.517       .  S
C607        C896   1.470       .  S
C608        C650   1.463       .  S
C609        C876   1.487       .  S
O610        C618   1.269       .  A
O610       Co630   1.983       .  S
O611        C619   1.249   1_655  A
O611       Co631   1.985   1_655  S
O612        C620   1.234       .  A
O612       Co632   1.966       .  S
O613        C621   1.276       .  A
O613       Co633   2.027       .  S
O614        C620   1.246       .  A
O614       Co631   2.008   1_655  S
O615        C621   1.251   1_655  A
O615       Co630   1.938       .  S
O616        C619   1.250       .  A
O616       Co633   1.980       .  S
O617        C618   1.267       .  A
O617       Co632   1.994       .  S
C619        C856   1.481       .  S
C620        C836   1.472       .  S
C621        C664   1.432       .  S
O622        C635   1.274       .  A
O622       Co630   2.053   1_455  S
O623        C636   1.298   1_455  A
O623       Co631   2.067       .  S
O624        C637   1.272       .  A
O624       Co632   1.984   1_455  S
O625        C638   1.272       .  A
O625       Co633   1.859       .  S
O626        C638   1.301       .  A
O626       Co631   2.098       .  S
O627        C637   1.266       .  A
O627       Co630   1.979   1_455  S
O628        C635   1.268       .  A
O628       Co633   2.024       .  S
O629        C636   1.276       .  A
O629       Co632   1.889       .  S
Co630       O634   2.044   1_655  S
Co631       O634   2.203       .  S
Co632       O634   1.915   1_655  S
Co633       O634   1.972       .  S
C636        C829   1.470       .  S
C637        C693   1.458       .  S
C638        C846   1.459       .  S
O639        C647   1.252       .  A
O639       Co659   1.977       .  S
O640        C648   1.253       .  A
O640       Co660   1.972       .  S
O641        C649   1.279       .  A
O641       Co661   2.047       .  S
O642        C650   1.299       .  A
O642       Co662   2.131   1_565  S
O643        C649   1.252   1_455  A
O643       Co660   1.926       .  S
O644        C650   1.253       .  A
O644       Co659   1.873       .  S
O645        C648   1.257   1_545  A
O645       Co662   1.988       .  S
O646        C647   1.275   1_655  A
O646       Co661   2.038       .  S
C648        C789   1.483       .  S
C649        C796   1.485       .  S
O651        C664   1.285       .  A
O651       Co659   2.024   1_545  S
O652        C665   1.273       .  A
O652       Co660   2.045   1_655  S
O653        C666   1.253       .  A
O653       Co661   1.990       .  S
O654        C667   1.256       .  A
O654       Co662   1.992       .  S
O655        C667   1.271       .  A
O655       Co660   2.032   1_545  S
O656        C666   1.251       .  A
O656       Co659   2.015   1_655  S
O657        C664   1.264       .  A
O657       Co662   1.931       .  S
O658        C665   1.250       .  A
O658       Co661   1.935       .  S
Co659       O663   2.028   1_455  S
Co660       O663   2.082   1_455  S
Co661       O663   2.054       .  S
Co662       O663   2.046   1_445  S
C665        C806   1.483       .  S
C667        C816   1.477   1_455  S
O668        C676   1.248       .  A
O668       Co688   1.845       .  S
O669        C677   1.258   1_565  A
O669       Co689   1.932   1_655  S
O670        C678   1.259       .  A
O670       Co690   2.000       .  S
O671        C679   1.286   1_545  A
O671       Co691   2.093       .  S
O672        C678   1.255       .  A
O672       Co689   1.974       .  S
O673        C679   1.255       .  A
O673       Co688   1.952       .  S
O674        C677   1.272       .  A
O674       Co691   2.006       .  S
O675        C676   1.305   1_455  A
O675       Co690   2.154       .  S
C677        C749   1.468       .  S
C678        C776   1.475       .  S
O680        C693   1.264   1_655  A
O680       Co688   2.003   1_545  S
O681        C694   1.280       .  A
O681       Co689   2.042       .  S
O682        C695   1.266       .  A
O682       Co690   1.891       .  S
O683        C696   1.252       .  A
O683       Co691   1.957   1_455  S
O684        C696   1.270       .  A
O684       Co689   2.040   1_545  S
O685        C695   1.280       .  A
O685       Co688   2.064   1_455  S
O686        C693   1.248       .  A
O686       Co691   1.973   1_455  S
O687        C694   1.268       .  A
O687       Co690   1.974       .  S
Co688       O692   1.971   1_655  S
Co689       O692   2.051       .  S
Co690       O692   2.016       .  S
Co691       O692   2.049   1_645  S
C694        C766   1.488       .  S
C696        C759   1.476       .  S
C697        C698   1.363       .  D
C697       C1296   1.490   1_655  S
C697       C1339   1.504       .  S
C698        C819   1.497       .  S
C698        C859   1.490   1_655  S
C699        C700   1.360       .  D
C699       C1016   1.489       .  S
C699       C1099   1.488       .  S
C700        C809   1.501       .  S
C700        C919   1.497       .  S
C701        C702   1.356       .  D
C701       C1259   1.493       .  S
C701       C1329   1.477   1_455  S
C702        C799   1.481   1_455  S
C702        C956   1.488       .  S
C703        C704   1.342       .  D
C703       C1059   1.473       .  S
C703       C1089   1.484       .  S
C704        C786   1.479       .  S
C704        C899   1.470       .  S
C705        C706   1.355       .  D
C705       C1499   1.496       .  S
C705       C1686   1.494       .  S
C706        C849   1.479       .  S
C706        C879   1.492       .  S
C707        C708   1.361       .  D
C707       C1566   1.475       .  S
C707       C1699   1.499       .  S
C708        C839   1.499       .  S
C708        C909   1.483       .  S
C709        C710   1.364       .  D
C709       C1486   1.494       .  S
C709       C1606   1.492       .  S
C710        C886   1.492       .  S
C710        C949   1.494       .  S
C711        C712   1.360       .  D
C711       C1049   1.486       .  S
C711       C1159   1.494       .  S
C712        C769   1.505       .  S
C712        C866   1.487       .  S
C713        C714   1.342       .  D
C713       C1289   1.478       .  S
C713       C1376   1.469       .  S
C714       C1039   1.473       .  S
C714       C1119   1.484   1_556  S
C715        C716   1.362       .  D
C715       C1236   1.499       .  S
C715       C1369   1.498       .  S
C716       C1029   1.482       .  S
C716       C1189   1.492       .  S
C717        C718   1.344       .  D
C717       C1619   1.475       .  S
C717       C1659   1.482       .  S
C718       C1076   1.479       .  S
C718       C1209   1.474       .  S
C719        C720   1.354       .  D
C719       C1649   1.490       .  S
C719       C1676   1.476       .  S
C720       C1069   1.485       .  S
C720       C1139   1.483       .  S
C721        C722   1.356       .  D
C721       C1539   1.489       .  S
C721       C1669   1.497       .  S
C722       C1129   1.482       .  S
C722       C1169   1.486       .  S
C723        C724   1.356       .  D
C723       C1279   1.472   1_455  S
C723       C1396   1.496       .  S
C724        C756   1.501       .  S
C724        C826   1.475       .  S
C725        C726   1.355   1_556  D
C725       C1266   1.486       .  S
C725       C1429   1.483   1_556  S
C726        C986   1.482       .  S
C726       C1106   1.493       .  S
C727        C728   1.348       .  D
C727       C1479   1.495       .  S
C727       C1636   1.472       .  S
C728       C1319   1.465       .  S
C728       C1359   1.491       .  S
C729        C730   1.365       .  D
C729       C1576   1.497       .  S
C729       C1626   1.502       .  S
C730       C1306   1.495       .  S
C730       C1449   1.501       .  S
C731        C732   1.360       .  D
C731       C1349   1.503       .  S
C731       C1386   1.494       .  S
C732       C1469   1.488       .  S
C732       C1529   1.486       .  S
C733        C734   1.359       .  D
C733        C779   1.482       .  S
C733        C966   1.492       .  S
C734       C1246   1.485       .  S
C734       C1409   1.489       .  S
C735        C736   1.335       .  D
C735       C1009   1.473       .  S
C735       C1149   1.465       .  S
C736        C746   1.463   1_565  S
C736        C929   1.470       .  S
C737        C738   1.354       .  D
C737       C1229   1.475       .  S
C737       C1439   1.494       .  S
C738        C999   1.495       .  S
C738       C1199   1.472       .  S
C739        C740   1.356       .  D
C739       C1519   1.490       .  S
C739       C1559   1.483       .  S
C740       C1419   1.487       .  S
C740       C1456   1.486       .  S
C741        C742   1.351       .  D
C741       C1549   1.476       .  S
C741       C1589   1.494       .  S
C742        C939   1.472       .  S
C742        C979   1.491       .  S
C743        C744   1.363       .  D
C743       C1176   1.493       .  S
C743       C1219   1.490       .  S
C744       C1509   1.497       .  S
C744       C1599   1.487       .  S
C745        C746   1.397   1_565  A
C745        C750   1.388       .  A
C745        F752   1.357       .  S
C746        C747   1.399       .  A
C747        C748   1.388       .  A
C747        F754   1.357       .  S
C748        C749   1.407       .  A
C748        F753   1.357       .  S
C749        C750   1.413   1_545  A
C750        F751   1.358       .  S
C755        C756   1.408       .  A
C755        C760   1.402       .  A
C755        F762   1.356       .  S
C756        C757   1.407   1_455  A
C757        C758   1.404       .  A
C757        F764   1.357       .  S
C758        C759   1.407   1_655  A
C758        F763   1.357       .  S
C759        C760   1.403       .  A
C760        F761   1.358       .  S
C765        C766   1.403   1_545  A
C765        C770   1.400       .  A
C765        F772   1.358       .  S
C766        C767   1.410       .  A
C767        C768   1.408       .  A
C767        F774   1.356       .  S
C768        C769   1.410       .  A
C768        F773   1.357       .  S
C769        C770   1.411   1_565  A
C770        F771   1.356       .  S
C775        C776   1.408       .  A
C775        C780   1.400       .  A
C775        F782   1.356       .  S
C776        C777   1.406   1_455  A
C777        C778   1.394   1_655  A
C777        F784   1.358       .  S
C778        C779   1.405       .  A
C778        F783   1.358   1_455  S
C779        C780   1.402       .  A
C780        F781   1.357       .  S
C785        C786   1.403   1_545  A
C785        C790   1.394       .  A
C785        F792   1.357       .  S
C786        C787   1.401       .  A
C787        C788   1.399       .  A
C787        F794   1.357       .  S
C788        C789   1.414       .  A
C788        F793   1.358       .  S
C789        C790   1.408   1_565  A
C790        F791   1.358       .  S
C795        C796   1.416   1_455  A
C795        C800   1.396       .  A
C795        F802   1.359       .  S
C796        C797   1.403       .  A
C797        C798   1.403       .  A
C797        F804   1.357       .  S
C798        C799   1.410       .  A
C798        F803   1.357       .  S
C799        C800   1.399   1_655  A
C800        F801   1.357       .  S
C805        C806   1.407       .  A
C805        C810   1.409       .  A
C805        F812   1.357       .  S
C806        C807   1.408   1_565  A
C807        C808   1.396       .  A
C807        F814   1.358       .  S
C808        C809   1.405   1_545  A
C808        F813   1.356       .  S
C809        C810   1.411       .  A
C810        F811   1.356       .  S
C815        C816   1.407   1_455  A
C815        C820   1.405       .  A
C815        F822   1.358       .  S
C816        C817   1.402       .  A
C817        C818   1.401       .  A
C817        F824   1.356       .  S
C818        C819   1.407       .  A
C818        F823   1.356       .  S
C819        C820   1.407   1_655  A
C820        F821   1.356       .  S
C825        C826   1.404   1_655  A
C825        C830   1.391       .  A
C825        F832   1.357       .  S
C826        C827   1.404       .  A
C827        C828   1.398       .  A
C827        F834   1.356       .  S
C828        C829   1.407   1_455  A
C828        F833   1.357       .  S
C829        C830   1.403       .  A
C830        F831   1.357       .  S
C835        C836   1.404       .  A
C835        C840   1.403       .  A
C835        F842   1.356       .  S
C836        C837   1.400       .  A
C837        C838   1.397       .  A
C837        F844   1.356       .  S
C838        C839   1.410       .  A
C838        F843   1.356       .  S
C839        C840   1.407       .  A
C840        F841   1.355       .  S
C845        C846   1.400       .  A
C845        C850   1.393       .  A
C845        F852   1.358       .  S
C846        C847   1.403       .  A
C847        C848   1.396       .  A
C847        F854   1.358       .  S
C848        C849   1.404       .  A
C848        F853   1.358       .  S
C849        C850   1.405       .  A
C850        F851   1.357       .  S
C855        C856   1.408   1_655  A
C855        C860   1.407       .  A
C855        F862   1.356       .  S
C856        C857   1.405       .  A
C857        C858   1.393       .  A
C857        F864   1.358       .  S
C858        C859   1.405       .  A
C858        F863   1.357       .  S
C859        C860   1.407   1_455  A
C860        F861   1.356       .  S
C865        C866   1.406   1_545  A
C865        C870   1.406       .  A
C865        F872   1.357       .  S
C866        C867   1.401       .  A
C867        C868   1.393       .  A
C867        F874   1.358       .  S
C868        C869   1.405       .  A
C868        F873   1.356       .  S
C869        C870   1.407   1_565  A
C870        F871   1.357       .  S
C875        C876   1.408       .  A
C875        C880   1.396       .  A
C875        F882   1.359       .  S
C876        C877   1.410       .  A
C877        C878   1.406       .  A
C877        F884   1.357       .  S
C878        C879   1.405       .  A
C878        F883   1.357       .  S
C879        C880   1.407       .  A
C880        F881   1.357       .  S
C885        C886   1.406       .  A
C885        C890   1.398       .  A
C885        F892   1.356       .  S
C886        C887   1.407       .  A
C887        C888   1.403       .  A
C887        F894   1.356       .  S
C888        C889   1.405       .  A
C888        F893   1.355       .  S
C889        C890   1.405       .  A
C890        F891   1.357       .  S
C895        C896   1.411       .  A
C895        C900   1.391       .  A
C895        F902   1.358   1_565  S
C896        C897   1.407       .  A
C897        C898   1.390       .  A
C897        F904   1.358       .  S
C898        C899   1.401       .  A
C898        F903   1.357       .  S
C899        C900   1.399       .  A
C900        F901   1.357   1_565  S
C905        C906   1.403       .  A
C905        C910   1.408       .  A
C905        F912   1.356       .  S
C906        C907   1.411       .  A
C907        C908   1.388       .  A
C907        F914   1.341       .  S
C908        C909   1.392       .  A
C908        F913   1.358       .  S
C909        C910   1.412       .  A
C910        F911   1.356       .  S
C915        C916   1.406       .  A
C915        C920   1.399       .  A
C915        F922   1.357       .  S
C916        C917   1.406       .  A
C917        C918   1.409       .  A
C917        F924   1.356   1_565  S
C918        C919   1.410       .  A
C918        F923   1.357   1_565  S
C919        C920   1.403       .  A
C920        F921   1.357       .  S
C925        C926   1.408       .  A
C925        C930   1.388       .  A
C925        F932   1.359       .  S
C926        C927   1.406   1_565  A
C927        C928   1.395       .  A
C927        F934   1.351       .  S
C928        C929   1.399   1_545  A
C928        F933   1.357       .  S
C929        C930   1.400       .  A
C930        F931   1.357       .  S
C935        C936   1.414       .  A
C935        C940   1.396       .  A
C935        F942   1.358       .  S
C936        C937   1.407       .  A
C937        C938   1.389       .  A
C937        F944   1.358       .  S
C938        C939   1.403       .  A
C938        F943   1.357       .  S
C939        C940   1.398       .  A
C940        F941   1.357       .  S
C945        C946   1.411       .  A
C945        C950   1.405       .  A
C945        F952   1.357       .  S
C946        C947   1.412       .  A
C947        C948   1.397       .  A
C947        F954   1.358       .  S
C948        C949   1.405       .  A
C948        F953   1.355       .  S
C949        C950   1.405       .  A
C950        F951   1.357       .  S
C955        C956   1.407       .  A
C955        C960   1.393       .  A
C955        F962   1.357       .  S
C956        C957   1.405   1_455  A
C957        C958   1.399       .  A
C957        F964   1.355       .  S
C958        C959   1.403   1_655  A
C958        F963   1.357       .  S
C959        C960   1.401       .  A
C960        F961   1.359       .  S
C965        C966   1.414       .  A
C965        C970   1.400       .  A
C965        F972   1.356       .  S
C966        C967   1.404       .  A
C967        C968   1.402       .  A
C967        F974   1.357   1_455  S
C968        C969   1.412       .  A
C968        F973   1.358   1_455  S
C969        C970   1.397       .  A
C970        F971   1.357       .  S
C975        C976   1.407       .  A
C975        C980   1.399       .  A
C975        F982   1.358       .  S
C976        C977   1.417       .  A
C977        C978   1.404       .  A
C977        F984   1.358       .  S
C978        C979   1.403       .  A
C978        F983   1.357       .  S
C979        C980   1.407       .  A
C980        F981   1.357       .  S
C985        C986   1.406   1_556  A
C985        C990   1.395       .  A
C985        F992   1.355       .  S
C986        C987   1.403       .  A
C987        C988   1.388       .  A
C987        F994   1.357       .  S
C988        C989   1.401       .  A
C988        F993   1.355       .  S
C989        C990   1.403   1_554  A
C990        F991   1.358       .  S
C995        C996   1.408       .  A
C995       C1000   1.400       .  A
C995       F1002   1.357       .  S
C996        C997   1.417   1_554  A
C997        C998   1.401       .  A
C997       F1004   1.358       .  S
C998        C999   1.404   1_556  A
C998       F1003   1.356       .  S
C999       C1000   1.409       .  A
C1000      F1001   1.357       .  S
C1005      C1006   1.405       .  A
C1005      C1010   1.390       .  A
C1005      F1012   1.358       .  S
C1006      C1007   1.408   1_565  A
C1007      C1008   1.393       .  A
C1007      F1014   1.358       .  S
C1008      C1009   1.400   1_545  A
C1008      F1013   1.357       .  S
C1009      C1010   1.402       .  A
C1010      F1011   1.357       .  S
C1015      C1016   1.400       .  A
C1015      C1020   1.391       .  A
C1015      F1022   1.357       .  S
C1016      C1017   1.408       .  A
C1017      C1018   1.407   1_565  A
C1017      F1024   1.357   1_565  S
C1018      C1019   1.406   1_545  A
C1018      F1023   1.352       .  S
C1019      C1020   1.406       .  A
C1020      F1021   1.350       .  S
C1025      C1026   1.400   1_556  A
C1025      C1030   1.396       .  A
C1025      F1032   1.356       .  S
C1026      C1027   1.403       .  A
C1027      C1028   1.394       .  A
C1027      F1034   1.358       .  S
C1028      C1029   1.404   1_554  A
C1028      F1033   1.357       .  S
C1029      C1030   1.406       .  A
C1030      F1031   1.355       .  S
C1035      C1036   1.411   1_554  A
C1035      C1040   1.397       .  A
C1035      F1042   1.358       .  S
C1036      C1037   1.407       .  A
C1037      C1038   1.391       .  A
C1037      F1044   1.358       .  S
C1038      C1039   1.401       .  A
C1038      F1043   1.357       .  S
C1039      C1040   1.400   1_556  A
C1040      F1041   1.356       .  S
C1045      C1046   1.401       .  A
C1045      C1050   1.392       .  A
C1045      F1052   1.357       .  S
C1046      C1047   1.407       .  A
C1047      C1048   1.404       .  A
C1047      F1054   1.358   1_565  S
C1048      C1049   1.405       .  A
C1048      F1053   1.357   1_565  S
C1049      C1050   1.405       .  A
C1050      F1051   1.357       .  S
C1055      C1056   1.405       .  A
C1055      C1060   1.401       .  A
C1055      F1062   1.357   1_565  S
C1056      C1057   1.405       .  A
C1057      C1058   1.388       .  A
C1057      F1064   1.358       .  S
C1058      C1059   1.400       .  A
C1058      F1063   1.357       .  S
C1059      C1060   1.405       .  A
C1060      F1061   1.357   1_565  S
C1065      C1066   1.410       .  A
C1065      C1070   1.401       .  A
C1065      F1072   1.356       .  S
C1066      C1067   1.411       .  A
C1067      C1068   1.394       .  A
C1067      F1074   1.358       .  S
C1068      C1069   1.401       .  A
C1068      F1073   1.357       .  S
C1069      C1070   1.404       .  A
C1070      F1071   1.356       .  S
C1075      C1076   1.399       .  A
C1075      C1080   1.390       .  A
C1075      F1082   1.358       .  S
C1076      C1077   1.406       .  A
C1077      C1078   1.402       .  A
C1077      F1084   1.357       .  S
C1078      C1079   1.403       .  A
C1078      F1083   1.354       .  S
C1079      C1080   1.404       .  A
C1080      F1081   1.351       .  S
C1085      C1086   1.404   1_545  A
C1085      C1090   1.392       .  A
C1085      F1092   1.355       .  S
C1086      C1087   1.403       .  A
C1087      C1088   1.402       .  A
C1087      F1094   1.354       .  S
C1088      C1089   1.406       .  A
C1088      F1093   1.356       .  S
C1089      C1090   1.400   1_565  A
C1090      F1091   1.357       .  S
C1095      C1096   1.408       .  A
C1095      C1100   1.409       .  A
C1095      F1102   1.354       .  S
C1096      C1097   1.416       .  A
C1097      C1098   1.390       .  A
C1097      F1104   1.359   1_565  S
C1098      C1099   1.398       .  A
C1098      F1103   1.358   1_565  S
C1099      C1100   1.409       .  A
C1100      F1101   1.357       .  S
C1105      C1106   1.408       .  A
C1105      C1110   1.397       .  A
C1105      F1112   1.351       .  S
C1106      C1107   1.410   1_554  A
C1107      C1108   1.399       .  A
C1107      F1114   1.358       .  S
C1108      C1109   1.403   1_556  A
C1108      F1113   1.358       .  S
C1109      C1110   1.401       .  A
C1110      F1111   1.355       .  S
C1115      C1116   1.404       .  A
C1115      C1120   1.399       .  A
C1115      F1122   1.357       .  S
C1116      C1117   1.401   1_556  A
C1117      C1118   1.395       .  A
C1117      F1124   1.356       .  S
C1118      C1119   1.404       .  A
C1118      F1123   1.356       .  S
C1119      C1120   1.405   1_554  A
C1120      F1121   1.356       .  S
C1125      C1126   1.406       .  A
C1125      C1130   1.395       .  A
C1125      F1132   1.358       .  S
C1126      C1127   1.406       .  A
C1127      C1128   1.396       .  A
C1127      F1134   1.357       .  S
C1128      C1129   1.403       .  A
C1128      F1133   1.357       .  S
C1129      C1130   1.404       .  A
C1130      F1131   1.357       .  S
C1135      C1136   1.405       .  A
C1135      C1140   1.398       .  A
C1135      F1142   1.355       .  S
C1136      C1137   1.398       .  A
C1137      C1138   1.395       .  A
C1137      F1144   1.355       .  S
C1138      C1139   1.407       .  A
C1138      F1143   1.356       .  S
C1139      C1140   1.402       .  A
C1140      F1141   1.357       .  S
C1145      C1146   1.401       .  A
C1145      C1150   1.392       .  A
C1145      F1152   1.358       .  S
C1146      C1147   1.397   1_565  A
C1147      C1148   1.388       .  A
C1147      F1154   1.357       .  S
C1148      C1149   1.402   1_545  A
C1148      F1153   1.357       .  S
C1149      C1150   1.402       .  A
C1150      F1151   1.357       .  S
C1155      C1156   1.404       .  A
C1155      C1160   1.406       .  A
C1155      F1162   1.357       .  S
C1156      C1157   1.401   1_565  A
C1157      C1158   1.395       .  A
C1157      F1164   1.357       .  S
C1158      C1159   1.406   1_545  A
C1158      F1163   1.357       .  S
C1159      C1160   1.409       .  A
C1160      F1161   1.356       .  S
C1165      C1166   1.405       .  A
C1165      C1170   1.396       .  A
C1165      F1172   1.357       .  S
C1166      C1167   1.410       .  A
C1167      C1168   1.404       .  A
C1167      F1174   1.356       .  S
C1168      C1169   1.405       .  A
C1168      F1173   1.358       .  S
C1169      C1170   1.407       .  A
C1170      F1171   1.356       .  S
C1175      C1176   1.403       .  A
C1175      C1180   1.391       .  A
C1175      F1182   1.356       .  S
C1176      C1177   1.410       .  A
C1177      C1178   1.408       .  A
C1177      F1184   1.356       .  S
C1178      C1179   1.407       .  A
C1178      F1183   1.357       .  S
C1179      C1180   1.408       .  A
C1180      F1181   1.358       .  S
C1185      C1186   1.401   1_554  A
C1185      C1190   1.393       .  A
C1185      F1192   1.353       .  S
C1186      C1187   1.402       .  A
C1187      C1188   1.407       .  A
C1187      F1194   1.356       .  S
C1188      C1189   1.412       .  A
C1188      F1193   1.356       .  S
C1189      C1190   1.406   1_556  A
C1190      F1191   1.353       .  S
C1195      C1196   1.403   1_554  A
C1195      C1200   1.399       .  A
C1195      F1202   1.357       .  S
C1196      C1197   1.399       .  A
C1197      C1198   1.385       .  A
C1197      F1204   1.359       .  S
C1198      C1199   1.403   1_556  A
C1198      F1203   1.358       .  S
C1199      C1200   1.403       .  A
C1200      F1201   1.357       .  S
C1205      C1206   1.409       .  A
C1205      C1210   1.400       .  A
C1205      F1212   1.357       .  S
C1206      C1207   1.407       .  A
C1207      C1208   1.383       .  A
C1207      F1214   1.355       .  S
C1208      C1209   1.398       .  A
C1208      F1213   1.356       .  S
C1209      C1210   1.404       .  A
C1210      F1211   1.357       .  S
C1215      C1216   1.406       .  A
C1215      C1220   1.402       .  A
C1215      F1222   1.357       .  S
C1216      C1217   1.411       .  A
C1217      C1218   1.399       .  A
C1217      F1224   1.358       .  S
C1218      C1219   1.403       .  A
C1218      F1223   1.357       .  S
C1219      C1220   1.408       .  A
C1220      F1221   1.356       .  S
C1225      C1226   1.409       .  A
C1225      C1230   1.398       .  A
C1225      F1232   1.356       .  S
C1226      C1227   1.405   1_554  A
C1227      C1228   1.391       .  A
C1227      F1234   1.358       .  S
C1228      C1229   1.404   1_556  A
C1228      F1233   1.358       .  S
C1229      C1230   1.401       .  A
C1230      F1231   1.357       .  S
C1235      C1236   1.410       .  A
C1235      C1240   1.406       .  A
C1235      F1242   1.356       .  S
C1236      C1237   1.404   1_556  A
C1237      C1238   1.400       .  A
C1237      F1244   1.357       .  S
C1238      C1239   1.409   1_554  A
C1238      F1243   1.358       .  S
C1239      C1240   1.406       .  A
C1240      F1241   1.357       .  S
C1245      C1246   1.401       .  A
C1245      C1250   1.399       .  A
C1245      F1252   1.357   1_455  S
C1246      C1247   1.404       .  A
C1247      C1248   1.396       .  A
C1247      F1254   1.357       .  S
C1248      C1249   1.409       .  A
C1248      F1253   1.358       .  S
C1249      C1250   1.415       .  A
C1250      F1251   1.358   1_455  S
C1255      C1256   1.401       .  A
C1255      C1260   1.399       .  A
C1255      F1262   1.358       .  S
C1256      C1257   1.411   1_455  A
C1257      C1258   1.406       .  A
C1257      F1264   1.356       .  S
C1258      C1259   1.404   1_655  A
C1258      F1263   1.356       .  S
C1259      C1260   1.411       .  A
C1260      F1261   1.356       .  S
C1265      C1266   1.402   1_554  A
C1265      C1270   1.395       .  A
C1265      F1272   1.356       .  S
C1266      C1267   1.404       .  A
C1267      C1268   1.398       .  A
C1267      F1274   1.357       .  S
C1268      C1269   1.405       .  A
C1268      F1273   1.357       .  S
C1269      C1270   1.404   1_556  A
C1270      F1271   1.351       .  S
C1275      C1276   1.416   1_455  A
C1275      C1280   1.385       .  A
C1275      F1282   1.359       .  S
C1276      C1277   1.405       .  A
C1277      C1278   1.396       .  A
C1277      F1284   1.358       .  S
C1278      C1279   1.405       .  A
C1278      F1283   1.356       .  S
C1279      C1280   1.396   1_655  A
C1280      F1281   1.357       .  S
C1285      C1286   1.405       .  A
C1285      C1290   1.397       .  A
C1285      F1292   1.357       .  S
C1286      C1287   1.415   1_554  A
C1287      C1288   1.393       .  A
C1287      F1294   1.358       .  S
C1288      C1289   1.398       .  A
C1288      F1293   1.356       .  S
C1289      C1290   1.405   1_556  A
C1290      F1291   1.357       .  S
C1295      C1296   1.404       .  A
C1295      C1300   1.394       .  A
C1295      F1302   1.358       .  S
C1296      C1297   1.407   1_455  A
C1297      C1298   1.406       .  A
C1297      F1304   1.357       .  S
C1298      C1299   1.403   1_655  A
C1298      F1303   1.350       .  S
C1299      C1300   1.404       .  A
C1300      F1301   1.356       .  S
C1305      C1306   1.403       .  A
C1305      C1310   1.395       .  A
C1305      F1312   1.358       .  S
C1306      C1307   1.409       .  A
C1307      C1308   1.404       .  A
C1307      F1314   1.357       .  S
C1308      C1309   1.406       .  A
C1308      F1313   1.358       .  S
C1309      C1310   1.406       .  A
C1310      F1311   1.356       .  S
C1315      C1316   1.409       .  A
C1315      C1320   1.382       .  A
C1315      F1322   1.359       .  S
C1316      C1317   1.406       .  A
C1317      C1318   1.399       .  A
C1317      F1324   1.357       .  S
C1318      C1319   1.404       .  A
C1318      F1323   1.357       .  S
C1319      C1320   1.397       .  A
C1320      F1321   1.357       .  S
C1325      C1326   1.414   1_455  A
C1325      C1330   1.385       .  A
C1325      F1332   1.359       .  S
C1326      C1327   1.406       .  A
C1327      C1328   1.396       .  A
C1327      F1334   1.358       .  S
C1328      C1329   1.404       .  A
C1328      F1333   1.357       .  S
C1329      C1330   1.399   1_655  A
C1330      F1331   1.354       .  S
C1335      C1336   1.407   1_455  A
C1335      C1340   1.406       .  A
C1335      F1342   1.358       .  S
C1336      C1337   1.404       .  A
C1337      C1338   1.400       .  A
C1337      F1344   1.357       .  S
C1338      C1339   1.410       .  A
C1338      F1343   1.357       .  S
C1339      C1340   1.411   1_655  A
C1340      F1341   1.353       .  S
C1345      C1346   1.408       .  A
C1345      C1350   1.415       .  A
C1345      F1352   1.355       .  S
C1346      C1347   1.406       .  A
C1347      C1348   1.397       .  A
C1347      F1354   1.354       .  S
C1348      C1349   1.404       .  A
C1348      F1353   1.357       .  S
C1349      C1350   1.412       .  A
C1350      F1351   1.357       .  S
C1355      C1356   1.410       .  A
C1355      C1360   1.394       .  A
C1355      F1362   1.358       .  S
C1356      C1357   1.403       .  A
C1357      C1358   1.398       .  A
C1357      F1364   1.358       .  S
C1358      C1359   1.408       .  A
C1358      F1363   1.355       .  S
C1359      C1360   1.402       .  A
C1360      F1361   1.357       .  S
C1365      C1366   1.404   1_554  A
C1365      C1370   1.404       .  A
C1365      F1372   1.358       .  S
C1366      C1367   1.408       .  A
C1367      C1368   1.402       .  A
C1367      F1374   1.357       .  S
C1368      C1369   1.405       .  A
C1368      F1373   1.357       .  S
C1369      C1370   1.411   1_556  A
C1370      F1371   1.353       .  S
C1375      C1376   1.405       .  A
C1375      C1380   1.394       .  A
C1375      F1382   1.356       .  S
C1376      C1377   1.395   1_556  A
C1377      C1378   1.389       .  A
C1377      F1384   1.357       .  S
C1378      C1379   1.415   1_554  A
C1378      F1383   1.358       .  S
C1379      C1380   1.403       .  A
C1380      F1381   1.356       .  S
C1385      C1386   1.409       .  A
C1385      C1390   1.411       .  A
C1385      F1392   1.357       .  S
C1386      C1387   1.398       .  A
C1387      C1388   1.393       .  A
C1387      F1394   1.358       .  S
C1388      C1389   1.407       .  A
C1388      F1393   1.347       .  S
C1389      C1390   1.409       .  A
C1390      F1391   1.357       .  S
C1395      C1396   1.408   1_655  A
C1395      C1400   1.406       .  A
C1395      F1402   1.355       .  S
C1396      C1397   1.409       .  A
C1397      C1398   1.402       .  A
C1397      F1404   1.357       .  S
C1398      C1399   1.403       .  A
C1398      F1403   1.358       .  S
C1399      C1400   1.408   1_455  A
C1400      F1401   1.358       .  S
C1405      C1406   1.407   1_655  A
C1405      C1410   1.399       .  A
C1405      F1412   1.358       .  S
C1406      C1407   1.412       .  A
C1407      C1408   1.404       .  A
C1407      F1414   1.349       .  S
C1408      C1409   1.401       .  A
C1408      F1413   1.357       .  S
C1409      C1410   1.408   1_455  A
C1410      F1411   1.357       .  S
C1415      C1416   1.406       .  A
C1415      C1420   1.398       .  A
C1415      F1422   1.358       .  S
C1416      C1417   1.415       .  A
C1417      C1418   1.401       .  A
C1417      F1424   1.358       .  S
C1418      C1419   1.401       .  A
C1418      F1423   1.357       .  S
C1419      C1420   1.408       .  A
C1420      F1421   1.358       .  S
C1425      C1426   1.411   1_556  A
C1425      C1430   1.404       .  A
C1425      F1432   1.358       .  S
C1426      C1427   1.405       .  A
C1427      C1428   1.389       .  A
C1427      F1434   1.359       .  S
C1428      C1429   1.405       .  A
C1428      F1433   1.355       .  S
C1429      C1430   1.405   1_554  A
C1430      F1431   1.357       .  S
C1435      C1436   1.401       .  A
C1435      C1440   1.394       .  A
C1435      F1442   1.354       .  S
C1436      C1437   1.407   1_554  A
C1437      C1438   1.400       .  A
C1437      F1444   1.358       .  S
C1438      C1439   1.408   1_556  A
C1438      F1443   1.355       .  S
C1439      C1440   1.407       .  A
C1440      F1441   1.356       .  S
C1445      C1446   1.403       .  A
C1445      C1450   1.397       .  A
C1445      F1452   1.352       .  S
C1446      C1447   1.410       .  A
C1447      C1448   1.415       .  A
C1447      F1454   1.357       .  S
C1448      C1449   1.411       .  A
C1448      F1453   1.357       .  S
C1449      C1450   1.406       .  A
C1450      F1451   1.357       .  S
C1455      C1456   1.411       .  A
C1455      C1460   1.399       .  A
C1455      F1462   1.357       .  S
C1456      C1457   1.399       .  A
C1457      C1458   1.392       .  A
C1457      F1464   1.356       .  S
C1458      C1459   1.417       .  A
C1458      F1463   1.358       .  S
C1459      C1460   1.404       .  A
C1460      F1461   1.358       .  S
C1465      C1466   1.407       .  A
C1465      C1470   1.398       .  A
C1465      F1472   1.358       .  S
C1466      C1467   1.415       .  A
C1467      C1468   1.400       .  A
C1467      F1474   1.358       .  S
C1468      C1469   1.401       .  A
C1468      F1473   1.357       .  S
C1469      C1470   1.407       .  A
C1470      F1471   1.357       .  S
C1475      C1476   1.408       .  A
C1475      C1480   1.411       .  A
C1475      F1482   1.357       .  S
C1476      C1477   1.410       .  A
C1477      C1478   1.393       .  A
C1477      F1484   1.349       .  S
C1478      C1479   1.398       .  A
C1478      F1483   1.358       .  S
C1479      C1480   1.412       .  A
C1480      F1481   1.355       .  S
C1485      C1486   1.404       .  A
C1485      C1490   1.398       .  A
C1485      F1492   1.355       .  S
C1486      C1487   1.409       .  A
C1487      C1488   1.402       .  A
C1487      F1494   1.357       .  S
C1488      C1489   1.407       .  A
C1488      F1493   1.358       .  S
C1489      C1490   1.411       .  A
C1490      F1491   1.358       .  S
C1495      C1496   1.410       .  A
C1495      C1500   1.389       .  A
C1495      F1502   1.352       .  S
C1496      C1497   1.410       .  A
C1497      C1498   1.411       .  A
C1497      F1504   1.357       .  S
C1498      C1499   1.410       .  A
C1498      F1503   1.357       .  S
C1499      C1500   1.399       .  A
C1500      F1501   1.358       .  S
C1505      C1506   1.406       .  A
C1505      C1510   1.405       .  A
C1505      F1512   1.357       .  S
C1506      C1507   1.417       .  A
C1507      C1508   1.399       .  A
C1507      F1514   1.358       .  S
C1508      C1509   1.401       .  A
C1508      F1513   1.356       .  S
C1509      C1510   1.412       .  A
C1510      F1511   1.356       .  S
C1515      C1516   1.400       .  A
C1515      C1520   1.398       .  A
C1515      F1522   1.358       .  S
C1516      C1517   1.412       .  A
C1517      C1518   1.403       .  A
C1517      F1524   1.357       .  S
C1518      C1519   1.402       .  A
C1518      F1523   1.357       .  S
C1519      C1520   1.409       .  A
C1520      F1521   1.356       .  S
C1525      C1526   1.410       .  A
C1525      C1530   1.402       .  A
C1525      F1532   1.350       .  S
C1526      C1527   1.407       .  A
C1527      C1528   1.397       .  A
C1527      F1534   1.358       .  S
C1528      C1529   1.407       .  A
C1528      F1533   1.357       .  S
C1529      C1530   1.401       .  A
C1530      F1531   1.357       .  S
C1535      C1536   1.407       .  A
C1535      C1540   1.407       .  A
C1535      F1542   1.357       .  S
C1536      C1537   1.407       .  A
C1537      C1538   1.391       .  A
C1537      F1544   1.347       .  S
C1538      C1539   1.396       .  A
C1538      F1543   1.358       .  S
C1539      C1540   1.408       .  A
C1540      F1541   1.357       .  S
C1545      C1546   1.411       .  A
C1545      C1550   1.400       .  A
C1545      F1552   1.358       .  S
C1546      C1547   1.400       .  A
C1547      C1548   1.391       .  A
C1547      F1554   1.356       .  S
C1548      C1549   1.405       .  A
C1548      F1553   1.357       .  S
C1549      C1550   1.400       .  A
C1550      F1551   1.357       .  S
C1555      C1556   1.417       .  A
C1555      C1560   1.396       .  A
C1555      F1562   1.358       .  S
C1556      C1557   1.406       .  A
C1557      C1558   1.401       .  A
C1557      F1564   1.357       .  S
C1558      C1559   1.407       .  A
C1558      F1563   1.357       .  S
C1559      C1560   1.398       .  A
C1560      F1561   1.356       .  S
C1565      C1566   1.401       .  A
C1565      C1570   1.390       .  A
C1565      F1572   1.353       .  S
C1566      C1567   1.403       .  A
C1567      C1568   1.391       .  A
C1567      F1574   1.358       .  S
C1568      C1569   1.407       .  A
C1568      F1573   1.358       .  S
C1569      C1570   1.409       .  A
C1570      F1571   1.358       .  S
C1575      C1576   1.409       .  A
C1575      C1580   1.407       .  A
C1575      F1582   1.357       .  S
C1576      C1577   1.401       .  A
C1577      C1578   1.396       .  A
C1577      F1584   1.358       .  S
C1578      C1579   1.407       .  A
C1578      F1583   1.354       .  S
C1579      C1580   1.407       .  A
C1580      F1581   1.358       .  S
C1585      C1586   1.417       .  A
C1585      C1590   1.400       .  A
C1585      F1592   1.358       .  S
C1586      C1587   1.408       .  A
C1587      C1588   1.402       .  A
C1587      F1594   1.357       .  S
C1588      C1589   1.407       .  A
C1588      F1593   1.357       .  S
C1589      C1590   1.403       .  A
C1590      F1591   1.357       .  S
C1595      C1596   1.406       .  A
C1595      C1600   1.398       .  A
C1595      F1602   1.358       .  S
C1596      C1597   1.403       .  A
C1597      C1598   1.396       .  A
C1597      F1604   1.356       .  S
C1598      C1599   1.405       .  A
C1598      F1603   1.357       .  S
C1599      C1600   1.406       .  A
C1600      F1601   1.354       .  S
C1605      C1606   1.407       .  A
C1605      C1610   1.402       .  A
C1605      F1612   1.354       .  S
C1606      C1607   1.407       .  A
C1607      C1608   1.398       .  A
C1607      F1614   1.357       .  S
C1608      C1609   1.404       .  A
C1608      F1613   1.357       .  S
C1609      C1610   1.407       .  A
C1610      F1611   1.358       .  S
C1615      C1616   1.409       .  A
C1615      C1620   1.391       .  A
C1615      F1622   1.358       .  S
C1616      C1617   1.412       .  A
C1617      C1618   1.396       .  A
C1617      F1624   1.358       .  S
C1618      C1619   1.401       .  A
C1618      F1623   1.357       .  S
C1619      C1620   1.401       .  A
C1620      F1621   1.358       .  S
C1625      C1626   1.406       .  A
C1625      C1630   1.396       .  A
C1625      F1632   1.357       .  S
C1626      C1627   1.412       .  A
C1627      C1628   1.416       .  A
C1627      F1634   1.357       .  S
C1628      C1629   1.409       .  A
C1628      F1633   1.356       .  S
C1629      C1630   1.405       .  A
C1630      F1631   1.356       .  S
C1635      C1636   1.406       .  A
C1635      C1640   1.400       .  A
C1635      F1642   1.357       .  S
C1636      C1637   1.396       .  A
C1637      C1638   1.384       .  A
C1637      F1644   1.357       .  S
C1638      C1639   1.410       .  A
C1638      F1643   1.359       .  S
C1639      C1640   1.406       .  A
C1640      F1641   1.358       .  S
C1645      C1646   1.404       .  A
C1645      C1650   1.402       .  A
C1645      F1652   1.357       .  S
C1646      C1647   1.419       .  A
C1647      C1648   1.392       .  A
C1647      F1654   1.359       .  S
C1648      C1649   1.400       .  A
C1648      F1653   1.357       .  S
C1649      C1650   1.411       .  A
C1650      F1651   1.355       .  S
C1655      C1656   1.402       .  A
C1655      C1660   1.396       .  A
C1655      F1662   1.358       .  S
C1656      C1657   1.401       .  A
C1657      C1658   1.392       .  A
C1657      F1664   1.358       .  S
C1658      C1659   1.404       .  A
C1658      F1663   1.357       .  S
C1659      C1660   1.407       .  A
C1660      F1661   1.356       .  S
C1665      C1666   1.405       .  A
C1665      C1670   1.394       .  A
C1665      F1672   1.355       .  S
C1666      C1667   1.405       .  A
C1667      C1668   1.411       .  A
C1667      F1674   1.357       .  S
C1668      C1669   1.413       .  A
C1668      F1673   1.355       .  S
C1669      C1670   1.405       .  A
C1670      F1671   1.357       .  S
C1675      C1676   1.401       .  A
C1675      C1680   1.390       .  A
C1675      F1682   1.358       .  S
C1676      C1677   1.401       .  A
C1677      C1678   1.399       .  A
C1677      F1684   1.357       .  S
C1678      C1679   1.411       .  A
C1678      F1683   1.357       .  S
C1679      C1680   1.410       .  A
C1680      F1681   1.358       .  S
C1685      C1686   1.406       .  A
C1685      C1690   1.398       .  A
C1685      F1692   1.358       .  S
C1686      C1687   1.410       .  A
C1687      C1688   1.405       .  A
C1687      F1694   1.356       .  S
C1688      C1689   1.405       .  A
C1688      F1693   1.358       .  S
C1689      C1690   1.404       .  A
C1690      F1691   1.358       .  S
C1695      C1696   1.419       .  A
C1695      C1700   1.398       .  A
C1695      F1702   1.358       .  S
C1696      C1697   1.403       .  A
C1697      C1698   1.406       .  A
C1697      F1704   1.357       .  S
C1698      C1699   1.416       .  A
C1698      F1703   1.355       .  S
C1699      C1700   1.401       .  A
C1700      F1701   1.355       .  S
