geometry optimzed in LAMMPS
_audit_creation_date              2020-11-30 
_audit_creation_method            'lammps2cif' 
_symmetry_space_group_name_H-M    'P1' 
_symmetry_Int_Tables_number       1 
_symmetry_cell_setting            triclinic 
loop_ 
_symmetry_equiv_pos_as_xyz 
  x,y,z 
_cell_length_a                    28.179821093540397 
_cell_length_b                    28.737835518919773 
_cell_length_c                    33.38005271445444 
_cell_angle_alpha                 89.9400679917238 
_cell_angle_beta                  90.15859846899184 
_cell_angle_gamma                 89.83904945093505 
loop_ 
_atom_site_label 
_atom_site_type_symbol 
_atom_site_fract_x 
_atom_site_fract_y 
_atom_site_fract_z 
_atom_site_charge 
N1          N  0.19374138  0.33807581  0.20681154    -0.06430
N2          N  0.18771244  0.36731506  0.17667170    -0.58550
N3          N  0.16069765  0.30454054  0.29904312    -0.06110
N4          N  0.12963443  0.31251272  0.32784562    -0.60680
N5          N  0.19383442  0.33672705  0.29912471    -0.05710
N6          N  0.18593374  0.36736181  0.32778365    -0.58530
N7          N  0.16037893  0.30615649  0.20648185    -0.05390
N8          N  0.13102622  0.31306945  0.17610221    -0.61030
C9          C  0.14851230  0.35130790  0.15762026     0.95740
C10         C  0.14619683  0.35149457  0.34566282     0.95520
N11         N  0.19350498  0.16190703  0.29610007    -0.06620
N12         N  0.18621407  0.13039067  0.32416637    -0.59130
N13         N  0.15947368  0.19686318  0.20496693    -0.04740
N14         N  0.12777158  0.18890057  0.17654361    -0.60380
N15         N  0.19256657  0.16452854  0.20462445    -0.06650
N16         N  0.18398965  0.13370149  0.17638915    -0.59400
N17         N  0.16050197  0.19432316  0.29729662    -0.04380
N18         N  0.13009603  0.18547360  0.32637205    -0.60470
Mn19       Mn  0.15865110  0.25058262  0.25206123     1.18440
C20         C  0.14661191  0.14546429  0.34296029     0.97830
C21         C  0.14368732  0.14938067  0.15901512     0.98490
N22         N  0.30600801  0.33542320  0.29948154    -0.06670
N23         N  0.31455834  0.36508948  0.32880836    -0.62980
N24         N  0.33890389  0.30571543  0.20706552    -0.05470
N25         N  0.37027268  0.31473539  0.17880189    -0.63650
N26         N  0.30539131  0.33766975  0.20734910    -0.06170
N27         N  0.31291152  0.36880459  0.17905011    -0.63240
N28         N  0.33893809  0.30285249  0.29869442    -0.05070
N29         N  0.37055881  0.30963836  0.32733204    -0.63930
Mn30       Mn  0.24967492  0.33844915  0.25324729     1.10660
C31         C  0.35455725  0.34819479  0.34605300     0.99050
C32         C  0.35344301  0.35409238  0.16153159     0.99120
N33         N  0.30379100  0.16475554  0.20327958    -0.06180
N34         N  0.31015046  0.13600619  0.17292601    -0.61560
N35         N  0.33766750  0.19381419  0.29694190    -0.05500
N36         N  0.36662014  0.18633859  0.32749923    -0.58290
N37         N  0.30448607  0.16180066  0.29572459    -0.06810
N38         N  0.31019461  0.13178075  0.32520428    -0.61120
N39         N  0.33776136  0.19604389  0.20440069    -0.05800
N40         N  0.36830766  0.18888415  0.17507931    -0.58310
Mn41       Mn  0.24874066  0.16193934  0.24982229     1.20190
Mn42       Mn  0.33990898  0.24946567  0.25176593     1.10090
Cl43       Cl  0.24920733  0.25019984  0.25177264    -0.86280
C44         C  0.35018872  0.15178661  0.15543152     0.96050
C45         C  0.34889067  0.14754950  0.34491158     0.95850
C46         C  0.44774063  0.45582042  0.47072380    -0.02800
C47         C  0.44453834  0.04257182  0.47132160    -0.02800
C48         C  0.04973582  0.45836807  0.46971574    -0.02800
C49         C  0.04814336  0.04466797  0.47068758    -0.02800
C50         C  0.02174353  0.00138361  0.45499810     0.00250
C51         C  0.47287768  0.00026185  0.45528513     0.00250
C52         C  0.44672404  0.45647898  0.03263045    -0.02800
C53         C  0.05169298  0.45718426  0.03135298    -0.02800
C54         C  0.47575970  0.42941655  0.00200303     0.00250
C55         C  0.02302228  0.43041721  0.00084860     0.00250
C56         C  0.04832340  0.04393916  0.03285591    -0.02800
C57         C  0.47389708  0.99898282  0.04819913     0.00250
C58         C  0.02314368  0.99947993  0.04802282     0.00250
C59         C  0.08158062  0.02496342  0.00151772     0.00250
C60         C  0.08270721  0.47901614  0.00011172     0.00250
C61         C  0.47251879  0.06946010  0.00231151     0.00250
C62         C  0.01959450  0.07011533  0.00191642     0.00250
C63         C  0.44590306  0.04186115  0.03320712    -0.02800
C64         C  0.41436897  0.47581199  0.00107017     0.00250
C65         C  0.41310404  0.02140102  0.00208952     0.00250
C66         C  0.38083692  0.37235008  0.37773711    -0.05780
C67         C  0.37029384  0.36377265  0.41793564    -0.33210
C68         C  0.39276053  0.38914484  0.44848211     0.36040
C69         C  0.42582409  0.42436430  0.43873686    -0.06140
C70         C  0.43853602  0.43005637  0.39815653    -0.33110
C71         C  0.41603883  0.40470650  0.36790325     0.35950
H72         H  0.34418454  0.33766717  0.42567370     0.16320
O73         O  0.38288040  0.37876734  0.48769644    -0.60610
H74         H  0.46478209  0.45538656  0.38935071     0.16330
O75         O  0.42832154  0.41216985  0.32868392    -0.60700
H76         H  0.40768004  0.43810263  0.31951378     0.43330
H77         H  0.34796081  0.38143214  0.49042124     0.43280
C78         C  0.37076453  0.12285405  0.37910327    -0.05780
C79         C  0.36032894  0.07577257  0.38481345    -0.33210
C80         C  0.38270281  0.04982946  0.41500668     0.36040
C81         C  0.41664317  0.07102949  0.44034584    -0.06140
C82         C  0.42299349  0.11950208  0.43701157    -0.33110
C83         C  0.40126304  0.14515016  0.40631690     0.35950
H84         H  0.33493658  0.05858276  0.36543895     0.16320
O85         O  0.36848012  0.00485371  0.42158232    -0.60610
H86         H  0.44389978  0.13815304  0.45873474     0.16330
O87         O  0.40956936  0.19205330  0.40367659    -0.60700
H88         H  0.38438171  0.20684644  0.42004037     0.43330
H89         H  0.36493406  0.98998023  0.39493789     0.43280
C90         C  0.07446230  0.42930062  0.43740067    -0.05780
C91         C  0.07015809  0.44172013  0.39661746    -0.33210
C92         C  0.09356093  0.41659086  0.36673471     0.36040
C93         C  0.12066593  0.37731775  0.37683850    -0.06140
C94         C  0.12461194  0.36386128  0.41694414    -0.33110
C95         C  0.10240873  0.38975217  0.44717731     0.35950
H96         H  0.04953567  0.47169340  0.38746468     0.16320
O97         O  0.08927493  0.43037704  0.32752975    -0.60610
H98         H  0.14575254  0.33367746  0.42495252     0.16330
O99         O  0.10802203  0.37567368  0.48611521    -0.60700
H100        H  0.13945672  0.38778362  0.49444109     0.43330
H101        H  0.11457872  0.45384547  0.32357285     0.43280
C102        C  0.42052200  0.42975796  0.06569608    -0.05780
C103        C  0.44757253  0.40811549  0.09572560    -0.33210
C104        C  0.42660618  0.38165725  0.12604177     0.36040
C105        C  0.37698021  0.37930200  0.12873206    -0.06140
C106        C  0.34929045  0.40435908  0.10139011    -0.33110
C107        C  0.37018351  0.42958528  0.07019718     0.35950
H108        H  0.48502192  0.41402172  0.09708682     0.16320
O109        O  0.45489194  0.36124389  0.15461035    -0.60610
H110        H  0.31099377  0.40481731  0.10437711     0.16330
O111        O  0.34115174  0.45721427  0.04705875    -0.60700
H112        H  0.31750902  0.43624103  0.03454862     0.43330
H113        H  0.46532588  0.33134814  0.14267041     0.43280
C114        C  0.07422134  0.07300149  0.43866888    -0.05780
C115        C  0.11179592  0.05162474  0.41782710    -0.33210
C116        C  0.13626568  0.07478828  0.38733989     0.36040
C117        C  0.12293699  0.12031879  0.37620223    -0.06140
C118        C  0.08586246  0.14200789  0.39695663    -0.33110
C119        C  0.06224940  0.11934802  0.42834919     0.35950
H120        H  0.12274728  0.01662558  0.42546049     0.16320
O121        O  0.17221444  0.05185507  0.36793691    -0.60610
H122        H  0.07512806  0.17708733  0.38908355     0.16330
O123        O  0.02664534  0.14254414  0.44772451    -0.60700
H124        H  0.04030025  0.17241931  0.45702423     0.43330
H125        H  0.20084795  0.05697316  0.38469260     0.43280
C126        C  0.12653643  0.37446053  0.12227223    -0.05780
C127        C  0.14774888  0.41443436  0.10633783    -0.33210
C128        C  0.12606236  0.43966076  0.07538238     0.36040
C129        C  0.08044412  0.42684516  0.06100093    -0.06140
C130        C  0.06282496  0.38329096  0.07334758    -0.33110
C131        C  0.08464644  0.35781697  0.10418607     0.35950
H132        H  0.18136079  0.42664902  0.11806968     0.16320
O133        O  0.15002786  0.47698435  0.05984751    -0.60610
H134        H  0.03110126  0.36911473  0.05978413     0.16330
O135        O  0.06379431  0.31743090  0.11702403    -0.60700
H136        H  0.07696686  0.29269089  0.09956548     0.43330
H137        H  0.17272045  0.46354621  0.04033127     0.43280
C138        C  0.37513492  0.12663827  0.12348567    -0.05780
C139        C  0.41812102  0.10468732  0.13245112    -0.33210
C140        C  0.44099014  0.07690347  0.10404576     0.36040
C141        C  0.42145091  0.07151111  0.06513569    -0.06140
C142        C  0.37901812  0.09554376  0.05595269    -0.33110
C143        C  0.35561487  0.12227704  0.08495776     0.35950
H144        H  0.43341683  0.10795692  0.16214644     0.16320
O145        O  0.48256663  0.05555601  0.11494813    -0.60610
H146        H  0.36356000  0.09338464  0.02628402     0.16330
O147        O  0.31371736  0.14402877  0.07537042    -0.60700
H148        H  0.32298690  0.17506141  0.06503740     0.43330
H149        H  0.47299761  0.02770469  0.13051126     0.43280
C150        C  0.11807817  0.12363233  0.12766438    -0.05780
C151        C  0.09373528  0.14746545  0.09736724    -0.33210
C152        C  0.07134120  0.12315222  0.06617657     0.36040
C153        C  0.07179229  0.07363596  0.06563151    -0.06140
C154        C  0.09286884  0.05076669  0.09840189    -0.33110
C155        C  0.11734623  0.07485184  0.12811158     0.35950
H156        H  0.09317528  0.18517917  0.09718878     0.16320
O157        O  0.04891558  0.14858337  0.03701777    -0.60610
H158        H  0.08906270  0.01388794  0.10215987     0.16330
O159        O  0.13818631  0.05029461  0.15877331    -0.60700
H160        H  0.16840673  0.03826799  0.14759631     0.43330
H161        H  0.07485589  0.16187325  0.02062855     0.43280
N162        N  0.19374129  0.33807570  0.70681152    -0.06430
N163        N  0.18771223  0.36731479  0.67667157    -0.58550
N164        N  0.16069799  0.30454051  0.79904331    -0.06110
N165        N  0.12963498  0.31251257  0.82784598    -0.60680
N166        N  0.19383470  0.33672707  0.79912476    -0.05710
N167        N  0.18593418  0.36736176  0.82778377    -0.58530
N168        N  0.16037884  0.30615638  0.70648203    -0.05390
N169        N  0.13102599  0.31306920  0.67610246    -0.61030
C170        C  0.14851198  0.35130755  0.65762030     0.95740
C171        C  0.14619746  0.35149441  0.84566314     0.95520
N172        N  0.19350532  0.16190714  0.79610031    -0.06620
N173        N  0.18621441  0.13039073  0.82416657    -0.59130
N174        N  0.15947366  0.19686306  0.70496731    -0.04740
N175        N  0.12777130  0.18890020  0.67654427    -0.60380
N176        N  0.19256666  0.16452852  0.70462472    -0.06650
N177        N  0.18398956  0.13370134  0.67638957    -0.59400
N178        N  0.16050227  0.19432322  0.79729688    -0.04380
N179        N  0.13009628  0.18547358  0.82637223    -0.60470
Mn180      Mn  0.15865126  0.25058259  0.75206148     1.18440
C181        C  0.14661219  0.14546428  0.84296046     0.97830
C182        C  0.14368696  0.14938025  0.65901580     0.98490
N183        N  0.30600824  0.33542324  0.79948151    -0.06670
N184        N  0.31455838  0.36508916  0.82880866    -0.62980
N185        N  0.33890398  0.30571547  0.70706534    -0.05470
N186        N  0.37027276  0.31473539  0.67880170    -0.63650
N187        N  0.30539134  0.33766973  0.70734887    -0.06170
N188        N  0.31291144  0.36880446  0.67904976    -0.63240
N189        N  0.33893850  0.30285272  0.79869411    -0.05070
N190        N  0.37055929  0.30963849  0.82733169    -0.63930
Mn191      Mn  0.24967503  0.33844918  0.75324722     1.10660
C192        C  0.35455752  0.34819457  0.84605303     0.99050
C193        C  0.35344296  0.35409225  0.66153129     0.99120
N194        N  0.30379114  0.16475556  0.70327967    -0.06180
N195        N  0.31015064  0.13600608  0.67292619    -0.61560
N196        N  0.33766773  0.19381448  0.79694197    -0.05500
N197        N  0.36662023  0.18633901  0.82749945    -0.58290
N198        N  0.30448631  0.16180095  0.79572465    -0.06810
N199        N  0.31019472  0.13178114  0.82520442    -0.61120
N200        N  0.33776148  0.19604394  0.70440068    -0.05800
N201        N  0.36830776  0.18888413  0.67507931    -0.58310
Mn202      Mn  0.24874088  0.16193945  0.74982243     1.20190
Mn203      Mn  0.33990919  0.24946582  0.75176581     1.10090
Cl204      Cl  0.24920751  0.25019991  0.75177265    -0.86280
C205        C  0.35018886  0.15178649  0.65543163     0.96050
C206        C  0.34889064  0.14754997  0.84491181     0.95850
C207        C  0.44774046  0.45582002  0.97072407    -0.02800
C208        C  0.44453827  0.04257163  0.97132146    -0.02800
C209        C  0.04973578  0.45836773  0.96971576    -0.02800
C210        C  0.04814329  0.04466759  0.97068729    -0.02800
C211        C  0.02174345  0.00138317  0.95499801     0.00250
C212        C  0.47287749  0.00026144  0.95528508     0.00250
C213        C  0.44672407  0.45647886  0.53263020    -0.02800
C214        C  0.05169298  0.45718428  0.53135299    -0.02800
C215        C  0.47575989  0.42941673  0.50200269     0.00250
C216        C  0.02302238  0.43041741  0.50084845     0.00250
C217        C  0.04832317  0.04393924  0.53285618    -0.02800
C218        C  0.47389707  0.99898266  0.54819905     0.00250
C219        C  0.02314354  0.99947987  0.54802291     0.00250
C220        C  0.08158060  0.02496367  0.50151800     0.00250
C221        C  0.08270721  0.47901638  0.50011181     0.00250
C222        C  0.47251880  0.06946021  0.50231169     0.00250
C223        C  0.01959438  0.07011549  0.50191668     0.00250
C224        C  0.44590311  0.04186108  0.53320723    -0.02800
C225        C  0.41436909  0.47581208  0.50107000     0.00250
C226        C  0.41310410  0.02140106  0.50208961     0.00250
C227        C  0.38083694  0.37234936  0.87773758    -0.05780
C228        C  0.37028885  0.36377623  0.91793583    -0.33210
C229        C  0.39275571  0.38914801  0.94848243     0.36040
C230        C  0.42582393  0.42436337  0.93873754    -0.06140
C231        C  0.43854042  0.43005109  0.89815783    -0.33110
C232        C  0.41604368  0.40470104  0.86790440     0.35950
H233        H  0.34417570  0.33767432  0.92567356     0.16320
O234        O  0.38287046  0.37877449  0.98769656    -0.60610
H235        H  0.46478987  0.45537811  0.88935256     0.16330
O236        O  0.42833122  0.41215998  0.82868554    -0.60700
H237        H  0.40769327  0.43809399  0.81951231     0.43330
H238        H  0.34795118  0.38144659  0.99041917     0.43280
C239        C  0.37076448  0.12285432  0.87910336    -0.05780
C240        C  0.36033088  0.07577218  0.88481188    -0.33210
C241        C  0.38270479  0.04982891  0.91500493     0.36040
C242        C  0.41664313  0.07102940  0.94034570    -0.06140
C243        C  0.42299123  0.11950247  0.93701309    -0.33110
C244        C  0.40126083  0.14515078  0.90631849     0.35950
H245        H  0.33494018  0.05858193  0.86543612     0.16320
O246        O  0.36848417  0.00485218  0.92157848    -0.60610
H247        H  0.44389575  0.13815359  0.95873746     0.16330
O248        O  0.40956490  0.19205442  0.90367976    -0.60700
H249        H  0.38437581  0.20684571  0.92004320     0.43330
H250        H  0.36494205  0.98997945  0.89493337     0.43280
C251        C  0.07446260  0.42930040  0.93740080    -0.05780
C252        C  0.07015954  0.44172059  0.89661767    -0.33210
C253        C  0.09356241  0.41659126  0.86673500     0.36040
C254        C  0.12066660  0.37731763  0.87683879    -0.06140
C255        C  0.12461186  0.36386074  0.91694437    -0.33110
C256        C  0.10240851  0.38975160  0.94717748     0.35950
H257        H  0.04953805  0.47169446  0.88746488     0.16320
O258        O  0.08927713  0.43037786  0.82753008    -0.60610
H259        H  0.14575200  0.33367661  0.92495275     0.16330
O260        O  0.10802132  0.37567285  0.98611535    -0.60700
H261        H  0.13945565  0.38778325  0.99444174     0.43330
H262        H  0.11458123  0.45384606  0.82357362     0.43280
C263        C  0.42052191  0.42975758  0.56569568    -0.05780
C264        C  0.44757228  0.40811839  0.59572710    -0.33210
C265        C  0.42660606  0.38166009  0.62604330     0.36040
C266        C  0.37698012  0.37930171  0.62873171    -0.06140
C267        C  0.34929011  0.40435556  0.60138781    -0.33110
C268        C  0.37018312  0.42958153  0.57019472     0.35950
H269        H  0.48502122  0.41402755  0.59708989     0.16320
O270        O  0.45489158  0.36124991  0.65461371    -0.60610
H271        H  0.31099324  0.40481127  0.60437329     0.16330
O272        O  0.34115046  0.45720685  0.54705383    -0.60700
H273        H  0.31751091  0.43623082  0.53454291     0.43330
H274        H  0.46532687  0.33135354  0.64267577     0.43280
C275        C  0.07422116  0.07300102  0.93866851    -0.05780
C276        C  0.11179692  0.05162495  0.91782774    -0.33210
C277        C  0.13626685  0.07478868  0.88734074     0.36040
C278        C  0.12293711  0.12031863  0.87620223    -0.06140
C279        C  0.08586116  0.14200693  0.89695547    -0.33110
C280        C  0.06224778  0.11934684  0.92834771     0.35950
H281        H  0.12274909  0.01662620  0.92546178     0.16320
O282        O  0.17221693  0.05185621  0.86793883    -0.60610
H283        H  0.07512571  0.17708582  0.88908160     0.16330
O284        O  0.02664173  0.14254187  0.94772137    -0.60700
H285        H  0.04029529  0.17241720  0.95702213     0.43330
H286        H  0.20084982  0.05697569  0.88469495     0.43280
C287        C  0.12653601  0.37445994  0.62227216    -0.05780
C288        C  0.14774991  0.41443214  0.60633615    -0.33210
C289        C  0.12606358  0.43965849  0.57538057     0.36040
C290        C  0.08044397  0.42684481  0.56100082    -0.06140
C291        C  0.06282305  0.38329192  0.57334905    -0.33110
C292        C  0.08464451  0.35781780  0.60418751     0.35950
H293        H  0.18136287  0.42664554  0.61806682     0.16320
O294        O  0.15003034  0.47698056  0.55984438    -0.60610
H295        H  0.03109818  0.36911679  0.55978671     0.16330
O296        O  0.06379088  0.31743314  0.61702697    -0.60700
H297        H  0.07696132  0.29269200  0.59956847     0.43330
H298        H  0.17272172  0.46354086  0.54032793     0.43280
C299        C  0.37513511  0.12663803  0.62348590    -0.05780
C300        C  0.41812039  0.10468578  0.63245179    -0.33210
C301        C  0.44098954  0.07690200  0.60404640     0.36040
C302        C  0.42145105  0.07151091  0.56513590    -0.06140
C303        C  0.37901917  0.09554487  0.55595251    -0.33110
C304        C  0.35561592  0.12227816  0.58495757     0.35950
H305        H  0.43341558  0.10795446  0.66214742     0.16320
O306        O  0.48256547  0.05555362  0.61494906    -0.60610
H307        H  0.36356176  0.09338674  0.52628351     0.16330
O308        O  0.31371923  0.14403119  0.57536981    -0.60700
H309        H  0.32298988  0.17506380  0.56503744     0.43330
H310        H  0.47299564  0.02770217  0.63051165     0.43280
C311        C  0.11807772  0.12363189  0.62766508    -0.05780
C312        C  0.09373106  0.14746509  0.59737013    -0.33210
C313        C  0.07133651  0.12315217  0.56617949     0.36040
C314        C  0.07179154  0.07363596  0.56563208    -0.06140
C315        C  0.09287161  0.05076627  0.59840056    -0.33110
C316        C  0.11734901  0.07485131  0.62811032     0.35950
H317        H  0.09316815  0.18517879  0.59719342     0.16320
O318        O  0.04890603  0.14858346  0.53702340    -0.60610
H319        H  0.08906780  0.01388722  0.60215725     0.16330
O320        O  0.13819211  0.05029363  0.65877032    -0.60700
H321        H  0.16841262  0.03826926  0.64759173     0.43330
H322        H  0.07484371  0.16188144  0.52063610     0.43280
N323        N  0.19374179  0.83807572  0.20681115    -0.06430
N324        N  0.18771300  0.86731482  0.17667120    -0.58550
N325        N  0.16069785  0.80454091  0.29904278    -0.06110
N326        N  0.12963469  0.81251324  0.32784530    -0.60680
N327        N  0.19383474  0.83672732  0.29912432    -0.05710
N328        N  0.18593424  0.86736209  0.32778327    -0.58530
N329        N  0.16037921  0.80615652  0.20648157    -0.05390
N330        N  0.13102657  0.81306942  0.17610189    -0.61030
C331        C  0.14851283  0.85130770  0.15761981     0.95740
C332        C  0.14619729  0.85149502  0.34566248     0.95520
N333        N  0.19350444  0.66190718  0.29609997    -0.06620
N334        N  0.18621335  0.63039073  0.32416616    -0.59130
N335        N  0.15947346  0.69686330  0.20496668    -0.04740
N336        N  0.12777154  0.68890084  0.17654317    -0.60380
N337        N  0.19256628  0.66452858  0.20462430    -0.06650
N338        N  0.18398945  0.63370161  0.17638891    -0.59400
N339        N  0.16050148  0.69432335  0.29729649    -0.04380
N340        N  0.13009536  0.68547371  0.32637178    -0.60470
Mn341      Mn  0.15865103  0.75058282  0.25206101     1.18440
C342        C  0.14661111  0.64546431  0.34295999     0.97830
C343        C  0.14368730  0.64938093  0.15901467     0.98490
N344        N  0.30600835  0.83542352  0.29948116    -0.06670
N345        N  0.31455894  0.86509017  0.32880765    -0.62980
N346        N  0.33890432  0.80571516  0.20706539    -0.05470
N347        N  0.37027324  0.81473491  0.17880180    -0.63650
N348        N  0.30539177  0.83766951  0.20734873    -0.06170
N349        N  0.31291210  0.86880415  0.17904959    -0.63240
N350        N  0.33893817  0.80285255  0.29869436    -0.05070
N351        N  0.37055890  0.80963852  0.32733197    -0.63930
Mn352      Mn  0.24967528  0.83844922  0.25324689     1.10660
C353        C  0.35455767  0.84819536  0.34605251     0.99050
C354        C  0.35344365  0.85409180  0.16153125     0.99120
N355        N  0.30379068  0.66475549  0.20327974    -0.06180
N356        N  0.31014994  0.63600629  0.17292604    -0.61560
N357        N  0.33766693  0.69381429  0.29694219    -0.05500
N358        N  0.36661926  0.68633882  0.32749975    -0.58290
N359        N  0.30448544  0.66180082  0.29572478    -0.06810
N360        N  0.31019364  0.63178107  0.32520464    -0.61120
N361        N  0.33776120  0.69604366  0.20440095    -0.05800
N362        N  0.36830742  0.68888395  0.17507953    -0.58310
Mn363      Mn  0.24874023  0.66193941  0.24982230     1.20190
Mn364      Mn  0.33990892  0.74946555  0.25176605     1.10090
Cl365      Cl  0.24920728  0.75019990  0.25177253    -0.86280
C366        C  0.35018827  0.65178660  0.15543161     0.96050
C367        C  0.34888952  0.64754987  0.34491213     0.95850
C368        C  0.44774154  0.95582056  0.47072341    -0.02800
C369        C  0.44453766  0.54257180  0.47132159    -0.02800
C370        C  0.04973664  0.95836844  0.46971561    -0.02800
C371        C  0.04814274  0.54466762  0.47068733    -0.02800
C372        C  0.02174279  0.50138323  0.45499810     0.00250
C373        C  0.47287681  0.50026160  0.45528520     0.00250
C374        C  0.44672480  0.95647866  0.03263013    -0.02800
C375        C  0.05169362  0.95718431  0.03135286    -0.02800
C376        C  0.47576065  0.92941656  0.00200259     0.00250
C377        C  0.02302311  0.93041734  0.00084830     0.00250
C378        C  0.04832310  0.54393912  0.03285565    -0.02800
C379        C  0.47389646  0.49898311  0.04819924     0.00250
C380        C  0.02314323  0.49948007  0.04802281     0.00250
C381        C  0.08158006  0.52496312  0.00151741     0.00250
C382        C  0.08270789  0.97901647  0.00011178     0.00250
C383        C  0.47251823  0.56946012  0.00231136     0.00250
C384        C  0.01959409  0.57011521  0.00191617     0.00250
C385        C  0.44590245  0.54186136  0.03320705    -0.02800
C386        C  0.41436976  0.97581185  0.00106991     0.00250
C387        C  0.41310338  0.52140115  0.00208950     0.00250
C388        C  0.38083751  0.87235085  0.37773641    -0.05780
C389        C  0.37029723  0.86377090  0.41793507    -0.33210
C390        C  0.39276395  0.88914314  0.44848153     0.36040
C391        C  0.42582501  0.92436482  0.43873616    -0.06140
C392        C  0.43853440  0.93005940  0.39815550    -0.33110
C393        C  0.41603688  0.90470980  0.36790224     0.35950
H394        H  0.34418999  0.83766350  0.42567328     0.16320
O395        O  0.38288660  0.87876335  0.48769594    -0.60610
H396        H  0.46477861  0.95539136  0.38934943     0.16330
O397        O  0.42831698  0.91217562  0.32868267    -0.60700
H398        H  0.40767368  0.93810786  0.31951429     0.43330
H399        H  0.34796689  0.88142473  0.49042203     0.43280
C400        C  0.37076326  0.62285433  0.37910378    -0.05780
C401        C  0.36032902  0.57577242  0.38481288    -0.33210
C402        C  0.38270313  0.54982919  0.41500587     0.36040
C403        C  0.41664235  0.57102952  0.44034592    -0.06140
C404        C  0.42299109  0.61950244  0.43701281    -0.33110
C405        C  0.40126042  0.64515069  0.40631833     0.35950
H406        H  0.33493767  0.55858232  0.36543763     0.16320
O407        O  0.36848185  0.50485279  0.42158019    -0.60610
H408        H  0.44389633  0.63815350  0.45873669     0.16330
O409        O  0.40956514  0.69205418  0.40367911    -0.60700
H410        H  0.38437654  0.70684602  0.42004273     0.43330
H411        H  0.36493818  0.48997982  0.39493532     0.43280
C412        C  0.07446314  0.92930111  0.43740050    -0.05780
C413        C  0.07015770  0.94171986  0.39661721    -0.33210
C414        C  0.09356046  0.91659059  0.36673439     0.36040
C415        C  0.12066659  0.87731825  0.37683824    -0.06140
C416        C  0.12461382  0.86386254  0.41694398    -0.33110
C417        C  0.10241062  0.88975339  0.44717717     0.35950
H418        H  0.04953432  0.97169248  0.38746441     0.16320
O419        O  0.08927328  0.93037604  0.32752932    -0.60610
H420        H  0.14575526  0.83367930  0.42495239     0.16330
O421        O  0.10802497  0.87567557  0.48611515    -0.60700
H422        H  0.13945966  0.88778607  0.49444042     0.43330
H423        H  0.11457666  0.95384473  0.32357167     0.43280
C424        C  0.42052274  0.92975727  0.06569560    -0.05780
C425        C  0.44757318  0.90811627  0.09572600    -0.33210
C426        C  0.42660688  0.88165791  0.12604216     0.36040
C427        C  0.37698092  0.87930118  0.12873158    -0.06140
C428        C  0.34929107  0.90435668  0.10138864    -0.33110
C429        C  0.37018410  0.92958282  0.07019566     0.35950
H430        H  0.48502235  0.91402388  0.09708799     0.16320
O431        O  0.45489252  0.86124600  0.15461158    -0.60610
H432        H  0.31099429  0.90481367  0.10437488     0.16330
O433        O  0.34115185  0.95720994  0.04705600    -0.60700
H434        H  0.31751107  0.93623519  0.03454515     0.43330
H435        H  0.46532712  0.83134999  0.14267253     0.43280
C436        C  0.07422052  0.57300109  0.43866846    -0.05780
C437        C  0.11179577  0.55162481  0.41782721    -0.33210
C438        C  0.13626547  0.57478849  0.38734002     0.36040
C439        C  0.12293605  0.62031864  0.37620182    -0.06140
C440        C  0.08586066  0.64200718  0.39695558    -0.33110
C441        C  0.06224758  0.61934716  0.42834805     0.35950
H442        H  0.12274773  0.51662594  0.42546102     0.16320
O443        O  0.17221501  0.55185576  0.36793763    -0.60610
H444        H  0.07512555  0.67708627  0.38908203     0.16330
O445        O  0.02664242  0.64254263  0.44772248    -0.60700
H446        H  0.04029678  0.67241763  0.45702319     0.43330
H447        H  0.20084817  0.55697470  0.38469355     0.43280
C448        C  0.12653703  0.87446025  0.12227176    -0.05780
C449        C  0.14774982  0.91443373  0.10633709    -0.33210
C450        C  0.12606333  0.93966021  0.07538170     0.36040
C451        C  0.08044473  0.92684510  0.06100069    -0.06140
C452        C  0.06282516  0.88329118  0.07334759    -0.33110
C453        C  0.08464670  0.85781704  0.10418595     0.35950
H454        H  0.18136197  0.92664807  0.11806870     0.16320
O455        O  0.15002910  0.97698353  0.05984664    -0.60610
H456        H  0.03110115  0.86911527  0.05978441     0.16330
O457        O  0.06379429  0.81743121  0.11702412    -0.60700
H458        H  0.07696652  0.79269101  0.09956559     0.43330
H459        H  0.17272152  0.96354512  0.04033040     0.43280
C460        C  0.37513428  0.62663841  0.12348559    -0.05780
C461        C  0.41812157  0.60468936  0.13245033    -0.33210
C462        C  0.44099063  0.57690552  0.10404496     0.36040
C463        C  0.42145024  0.57151142  0.06513551    -0.06140
C464        C  0.37901612  0.59554215  0.05595316    -0.33110
C465        C  0.35561291  0.62227533  0.08495831     0.35950
H466        H  0.43341832  0.60796026  0.16214520     0.16320
O467        O  0.48256799  0.55555940  0.11494681    -0.60610
H468        H  0.36355693  0.59338169  0.02628497     0.16330
O469        O  0.31371418  0.64402522  0.07537165    -0.60700
H470        H  0.32298211  0.67505795  0.06503780     0.43330
H471        H  0.47300020  0.52770825  0.13051070     0.43280
C472        C  0.11807825  0.62363262  0.12766383    -0.05780
C473        C  0.09373704  0.64746567  0.09736567    -0.33210
C474        C  0.07134318  0.62315228  0.06617497     0.36040
C475        C  0.07179248  0.57363599  0.06563099    -0.06140
C476        C  0.09286760  0.55076693  0.09840216    -0.33110
C477        C  0.11734495  0.57485215  0.12811185     0.35950
H478        H  0.09317832  0.68517940  0.09718642     0.16320
O479        O  0.04891977  0.64858334  0.03701493    -0.60610
H480        H  0.08906045  0.51388832  0.10216072     0.16330
O481        O  0.13818369  0.55029511  0.15877434    -0.60700
H482        H  0.16840409  0.53826754  0.14759805     0.43330
H483        H  0.07486126  0.66186883  0.02062441     0.43280
N484        N  0.19374172  0.83807569  0.70681114    -0.06430
N485        N  0.18771279  0.86731466  0.67667110    -0.58550
N486        N  0.16069817  0.80454095  0.79904295    -0.06110
N487        N  0.12963523  0.81251314  0.82784566    -0.60680
N488        N  0.19383500  0.83672741  0.79912436    -0.05710
N489        N  0.18593465  0.86736211  0.82778340    -0.58530
N490        N  0.16037913  0.80615650  0.70648174    -0.05390
N491        N  0.13102635  0.81306928  0.67610213    -0.61030
C492        C  0.14851251  0.85130747  0.65761987     0.95740
C493        C  0.14619789  0.85149491  0.84566280     0.95520
N494        N  0.19350477  0.66190736  0.79610021    -0.06620
N495        N  0.18621366  0.63039086  0.82416635    -0.59130
N496        N  0.15947347  0.69686325  0.70496706    -0.04740
N497        N  0.12777126  0.68890050  0.67654385    -0.60380
N498        N  0.19256640  0.66452866  0.70462456    -0.06650
N499        N  0.18398942  0.63370153  0.67638934    -0.59400
N500        N  0.16050178  0.69432349  0.79729673    -0.04380
N501        N  0.13009559  0.68547375  0.82637194    -0.60470
Mn502      Mn  0.15865118  0.75058286  0.75206125     1.18440
C503        C  0.14661137  0.64546436  0.84296015     0.97830
C504        C  0.14368696  0.64938055  0.65901538     0.98490
N505        N  0.30600855  0.83542366  0.79948115    -0.06670
N506        N  0.31455894  0.86508997  0.82880794    -0.62980
N507        N  0.33890442  0.80571528  0.70706526    -0.05470
N508        N  0.37027333  0.81473496  0.67880164    -0.63650
N509        N  0.30539181  0.83766957  0.70734852    -0.06170
N510        N  0.31291204  0.86880408  0.67904925    -0.63240
N511        N  0.33893854  0.80285287  0.79869411    -0.05070
N512        N  0.37055932  0.80963875  0.82733168    -0.63930
Mn513      Mn  0.24967538  0.83844933  0.75324683     1.10660
C514        C  0.35455788  0.84819526  0.84605257     0.99050
C515        C  0.35344361  0.85409171  0.66153096     0.99120
N516        N  0.30379087  0.66475559  0.70327986    -0.06180
N517        N  0.31015020  0.63600625  0.67292627    -0.61560
N518        N  0.33766713  0.69381468  0.79694232    -0.05500
N519        N  0.36661929  0.68633934  0.82750005    -0.58290
N520        N  0.30448566  0.66180120  0.79572488    -0.06810
N521        N  0.31019370  0.63178155  0.82520481    -0.61120
N522        N  0.33776136  0.69604380  0.70440099    -0.05800
N523        N  0.36830759  0.68888401  0.67507959    -0.58310
Mn524      Mn  0.24874047  0.66193962  0.74982246     1.20190
Mn525      Mn  0.33990914  0.74946579  0.75176598     1.10090
Cl526      Cl  0.24920745  0.75020006  0.75177256    -0.86280
C527        C  0.35018851  0.65178656  0.65543179     0.96050
C528        C  0.34888942  0.64755044  0.84491242     0.95850
C529        C  0.44774136  0.95582022  0.97072373    -0.02800
C530        C  0.44453758  0.54257157  0.97132138    -0.02800
C531        C  0.04973660  0.95836810  0.96971567    -0.02800
C532        C  0.04814264  0.54466724  0.97068700    -0.02800
C533        C  0.02174270  0.50138278  0.95499796     0.00250
C534        C  0.47287662  0.50026115  0.95528509     0.00250
C535        C  0.44672484  0.95647851  0.53262984    -0.02800
C536        C  0.05169361  0.95718435  0.53135282    -0.02800
C537        C  0.47576085  0.92941671  0.50200222     0.00250
C538        C  0.02302321  0.93041753  0.50084811     0.00250
C539        C  0.04832288  0.54393921  0.53285596    -0.02800
C540        C  0.47389648  0.49898297  0.54819921     0.00250
C541        C  0.02314311  0.49948001  0.54802295     0.00250
C542        C  0.08158007  0.52496336  0.50151774     0.00250
C543        C  0.08270788  0.97901671  0.50011183     0.00250
C544        C  0.47251828  0.56946025  0.50231158     0.00250
C545        C  0.01959400  0.57011538  0.50191646     0.00250
C546        C  0.44590255  0.54186133  0.53320722    -0.02800
C547        C  0.41436988  0.97581188  0.50106969     0.00250
C548        C  0.41310346  0.52140124  0.50208968     0.00250
C549        C  0.38083747  0.87235027  0.87773689    -0.05780
C550        C  0.37029247  0.86377437  0.91793530    -0.33210
C551        C  0.39275935  0.88914619  0.94848188     0.36040
C552        C  0.42582482  0.92436400  0.93873686    -0.06140
C553        C  0.43853850  0.93005451  0.89815678    -0.33110
C554        C  0.41604140  0.90470474  0.86790338     0.35950
H555        H  0.34418160  0.83767032  0.92567318     0.16320
O556        O  0.38287719  0.87877014  0.98769610    -0.60610
H557        H  0.46478590  0.95538346  0.88935124     0.16330
O558        O  0.42832607  0.91216641  0.82868425    -0.60700
H559        H  0.40768613  0.93809982  0.81951295     0.43330
H560        H  0.34795776  0.88143830  0.99042012     0.43280
C561        C  0.37076312  0.62285465  0.87910391    -0.05780
C562        C  0.36033111  0.57577200  0.88481114    -0.33210
C563        C  0.38270527  0.54982858  0.91500392     0.36040
C564        C  0.41664227  0.57102940  0.94034574    -0.06140
C565        C  0.42298850  0.61950288  0.93701451    -0.33110
C566        C  0.40125788  0.64515138  0.90632013     0.35950
H567        H  0.33494160  0.55858141  0.86543448     0.16320
O568        O  0.36848629  0.50485110  0.92157593    -0.60610
H569        H  0.44389174  0.63815411  0.95873975     0.16330
O570        O  0.40956008  0.69205545  0.90368269    -0.60700
H571        H  0.38436988  0.70684520  0.92004594     0.43330
H572        H  0.36494682  0.48997898  0.89493032     0.43280
C573        C  0.07446340  0.92930088  0.93740066    -0.05780
C574        C  0.07015910  0.94172031  0.89661744    -0.33210
C575        C  0.09356187  0.91659101  0.86673470     0.36040
C576        C  0.12066722  0.87731816  0.87683853    -0.06140
C577        C  0.12461370  0.86386200  0.91694421    -0.33110
C578        C  0.10241038  0.88975281  0.94717735     0.35950
H579        H  0.04953660  0.97169351  0.88746464     0.16320
O580        O  0.08927542  0.93037688  0.82752968    -0.60610
H581        H  0.14575469  0.83367845  0.92495262     0.16330
O582        O  0.10802421  0.87567470  0.98611530    -0.60700
H583        H  0.13945860  0.88778552  0.99444104     0.43330
H584        H  0.11457909  0.95384536  0.82357247     0.43280
C585        C  0.42052266  0.92975685  0.56569515    -0.05780
C586        C  0.44757296  0.90811882  0.59572728    -0.33210
C587        C  0.42660677  0.88166045  0.62604348     0.36040
C588        C  0.37698084  0.87930090  0.62873122    -0.06140
C589        C  0.34929077  0.90435342  0.60138648    -0.33110
C590        C  0.37018374  0.92957932  0.57019333     0.35950
H591        H  0.48502173  0.91402905  0.59709066     0.16320
O592        O  0.45489220  0.86125145  0.65461458    -0.60610
H593        H  0.31099381  0.90480812  0.60437133     0.16330
O594        O  0.34115068  0.95720302  0.54705139    -0.60700
H595        H  0.31751291  0.93622566  0.53453973     0.43330
H596        H  0.46532808  0.83135489  0.64267734     0.43280
C597        C  0.07422028  0.57300063  0.93866804    -0.05780
C598        C  0.11179683  0.55162510  0.91782788    -0.33210
C599        C  0.13626671  0.57478898  0.88734091     0.36040
C600        C  0.12293613  0.62031852  0.87620179    -0.06140
C601        C  0.08585919  0.64200618  0.89695429    -0.33110
C602        C  0.06224576  0.61934592  0.92834640     0.35950
H603        H  0.12274966  0.51662667  0.92546239     0.16320
O604        O  0.17221769  0.55185706  0.86793971    -0.60610
H605        H  0.07512292  0.67708467  0.88907987     0.16330
O606        O  0.02663841  0.64254018  0.94771901    -0.60700
H607        H  0.04029122  0.67241541  0.95702079     0.43330
H608        H  0.20085018  0.55697754  0.88469609     0.43280
C609        C  0.12653661  0.87445981  0.62227174    -0.05780
C610        C  0.14775064  0.91443191  0.60633568    -0.33210
C611        C  0.12606431  0.93965834  0.57538018     0.36040
C612        C  0.08044457  0.92684484  0.56100058    -0.06140
C613        C  0.06282347  0.88329206  0.57334887    -0.33110
C614        C  0.08464498  0.85781782  0.60418721     0.35950
H615        H  0.18136368  0.92664520  0.61806629     0.16320
O616        O  0.15003112  0.97698041  0.55984403    -0.60610
H617        H  0.03109844  0.86911711  0.55978666     0.16330
O618        O  0.06379128  0.81743320  0.61702669    -0.60700
H619        H  0.07696168  0.79269203  0.59956820     0.43330
H620        H  0.17272255  0.96354071  0.54032763     0.43280
C621        C  0.37513458  0.62663824  0.62348590    -0.05780
C622        C  0.41812084  0.60468753  0.63245120    -0.33210
C623        C  0.44098993  0.57690376  0.60404579     0.36040
C624        C  0.42145049  0.57151127  0.56513581    -0.06140
C625        C  0.37901752  0.59554370  0.55595295    -0.33110
C626        C  0.35561431  0.62227689  0.58495809     0.35950
H627        H  0.43341680  0.60795725  0.66214646     0.16320
O628        O  0.48256658  0.55555648  0.61494801    -0.60610
H629        H  0.36355924  0.59338448  0.52628435     0.16330
O630        O  0.31371665  0.64402843  0.57537090    -0.60700
H631        H  0.32298599  0.67506112  0.56503786     0.43330
H632        H  0.47299776  0.52770518  0.63051125     0.43280
C633        C  0.11807781  0.62363218  0.62766457    -0.05780
C634        C  0.09373199  0.64746530  0.59736908    -0.33210
C635        C  0.07133754  0.62315225  0.56617845     0.36040
C636        C  0.07179167  0.57363602  0.56563162    -0.06140
C637        C  0.09287109  0.55076649  0.59840049    -0.33110
C638        C  0.11734847  0.57485160  0.62811022     0.35950
H639        H  0.09316970  0.68517900  0.59719194     0.16320
O640        O  0.04890816  0.64858345  0.53702170    -0.60610
H641        H  0.08906678  0.51388752  0.60215751     0.16330
O642        O  0.13819094  0.55029405  0.65877060    -0.60700
H643        H  0.16841145  0.53826923  0.64759235     0.43330
H644        H  0.07484642  0.66187863  0.52063337     0.43280
N645        N  0.69374143  0.33807593  0.20681158    -0.06430
N646        N  0.68771246  0.36731528  0.17667183    -0.58550
N647        N  0.66069769  0.30454057  0.29904311    -0.06110
N648        N  0.62963444  0.31251275  0.32784560    -0.60680
N649        N  0.69383446  0.33672708  0.29912474    -0.05710
N650        N  0.68593377  0.36736182  0.32778368    -0.58530
N651        N  0.66037899  0.30615660  0.20648185    -0.05390
N652        N  0.63102626  0.31306965  0.17610224    -0.61030
C653        C  0.64851231  0.35130817  0.15762036     0.95740
C654        C  0.64619684  0.35149458  0.34566282     0.95520
N655        N  0.69350500  0.16190706  0.29609999    -0.06620
N656        N  0.68621409  0.13039068  0.32416628    -0.59130
N657        N  0.65947371  0.19686327  0.20496688    -0.04740
N658        N  0.62777160  0.18890065  0.17654358    -0.60380
N659        N  0.69256661  0.16452863  0.20462439    -0.06650
N660        N  0.68398967  0.13370157  0.17638910    -0.59400
N661        N  0.66050198  0.19432319  0.29729657    -0.04380
N662        N  0.63009605  0.18547362  0.32637200    -0.60470
Mn663      Mn  0.65865114  0.25058268  0.25206120     1.18440
C664        C  0.64661193  0.14546430  0.34296021     0.97830
C665        C  0.64368733  0.14938074  0.15901508     0.98490
N666        N  0.80600806  0.33542321  0.29948158    -0.06670
N667        N  0.81455838  0.36508947  0.32880841    -0.62980
N668        N  0.83890395  0.30571550  0.20706554    -0.05470
N669        N  0.87027275  0.31473548  0.17880192    -0.63650
N670        N  0.80539137  0.33766982  0.20734913    -0.06170
N671        N  0.81291157  0.36880467  0.17905015    -0.63240
N672        N  0.83893813  0.30285250  0.29869443    -0.05070
N673        N  0.87055885  0.30963835  0.32733206    -0.63930
Mn674      Mn  0.74967497  0.33844920  0.25324733     1.10660
C675        C  0.85455729  0.34819477  0.34605304     0.99050
C676        C  0.85344307  0.35409247  0.16153163     0.99120
N677        N  0.80379103  0.16475561  0.20327954    -0.06180
N678        N  0.81015050  0.13600627  0.17292596    -0.61560
N679        N  0.83766750  0.19381421  0.29694189    -0.05500
N680        N  0.86662011  0.18633861  0.32749924    -0.58290
N681        N  0.80448607  0.16180069  0.29572455    -0.06810
N682        N  0.81019457  0.13178077  0.32520425    -0.61120
N683        N  0.83776141  0.19604394  0.20440067    -0.05800
N684        N  0.86830771  0.18888421  0.17507930    -0.58310
Mn685      Mn  0.74874068  0.16193940  0.24982223     1.20190
Mn686      Mn  0.83990902  0.24946571  0.25176593     1.10090
Cl687      Cl  0.74920737  0.25019989  0.25177262    -0.86280
C688        C  0.85018876  0.15178668  0.15543149     0.96050
C689        C  0.84889059  0.14754952  0.34491158     0.95850
C690        C  0.94774066  0.45582041  0.47072382    -0.02800
C691        C  0.94453820  0.04257182  0.47132162    -0.02800
C692        C  0.54973580  0.45836806  0.46971573    -0.02800
C693        C  0.54814350  0.04466795  0.47068756    -0.02800
C694        C  0.52174364  0.00138360  0.45499808     0.00250
C695        C  0.97287757  0.00026185  0.45528514     0.00250
C696        C  0.94672413  0.45647900  0.03263045    -0.02800
C697        C  0.55169286  0.45718432  0.03135302    -0.02800
C698        C  0.97575979  0.42941656  0.00200302     0.00250
C699        C  0.52302219  0.43041721  0.00084864     0.00250
C700        C  0.54832340  0.04393918  0.03285593    -0.02800
C701        C  0.97389707  0.99898282  0.04819912     0.00250
C702        C  0.52314368  0.99947994  0.04802283     0.00250
C703        C  0.58158062  0.02496344  0.00151773     0.00250
C704        C  0.58270711  0.47901617  0.00011176     0.00250
C705        C  0.97251879  0.06946010  0.00231150     0.00250
C706        C  0.51959449  0.07011533  0.00191644     0.00250
C707        C  0.94590306  0.04186115  0.03320711    -0.02800
C708        C  0.91436908  0.47581203  0.00107017     0.00250
C709        C  0.91310403  0.02140103  0.00208950     0.00250
C710        C  0.88083697  0.37235005  0.37773714    -0.05780
C711        C  0.87029385  0.36377264  0.41793567    -0.33210
C712        C  0.89276054  0.38914484  0.44848214     0.36040
C713        C  0.92582412  0.42436428  0.43873688    -0.06140
C714        C  0.93853608  0.43005632  0.39815656    -0.33110
C715        C  0.91603890  0.40470645  0.36790328     0.35950
H716        H  0.84418453  0.33766718  0.42567373     0.16320
O717        O  0.88288038  0.37876737  0.48769646    -0.60610
H718        H  0.96478216  0.45538650  0.38935074     0.16330
O719        O  0.92832163  0.41216977  0.32868395    -0.60700
H720        H  0.90768015  0.43810254  0.31951380     0.43330
H721        H  0.84796079  0.38143221  0.49042125     0.43280
C722        C  0.87076441  0.12285406  0.37910328    -0.05780
C723        C  0.86032899  0.07577253  0.38481333    -0.33210
C724        C  0.88270283  0.04982941  0.41500656     0.36040
C725        C  0.91664300  0.07102949  0.44034587    -0.06140
C726        C  0.92299307  0.11950213  0.43701178    -0.33110
C727        C  0.90126267  0.14515022  0.40631709     0.35950
H728        H  0.83493679  0.05858268  0.36543870     0.16320
O729        O  0.86848029  0.00485359  0.42158205    -0.60610
H730        H  0.94389913  0.13815312  0.45873510     0.16330
O731        O  0.90956878  0.19205340  0.40367692    -0.60700
H732        H  0.88438097  0.20684638  0.42004064     0.43330
H733        H  0.86493441  0.98998018  0.39493758     0.43280
C734        C  0.57446228  0.42930062  0.43740066    -0.05780
C735        C  0.57015806  0.44172012  0.39661745    -0.33210
C736        C  0.59356092  0.41659086  0.36673471     0.36040
C737        C  0.62066593  0.37731775  0.37683850    -0.06140
C738        C  0.62461194  0.36386129  0.41694414    -0.33110
C739        C  0.60240871  0.38975217  0.44717730     0.35950
H740        H  0.54953564  0.47169338  0.38746467     0.16320
O741        O  0.58927492  0.43037704  0.32752974    -0.60610
H742        H  0.64575254  0.33367748  0.42495252     0.16330
O743        O  0.60802201  0.37567368  0.48611520    -0.60700
H744        H  0.63945670  0.38778361  0.49444109     0.43330
H745        H  0.61457871  0.45384546  0.32357284     0.43280
C746        C  0.92052207  0.42975801  0.06569610    -0.05780
C747        C  0.94757256  0.40811607  0.09572593    -0.33210
C748        C  0.92660623  0.38165780  0.12604210     0.36040
C749        C  0.87698027  0.37930210  0.12873210    -0.06140
C750        C  0.84929048  0.40435876  0.10138990    -0.33110
C751        C  0.87018354  0.42958493  0.07019695     0.35950
H752        H  0.98502187  0.41402279  0.09708743     0.16320
O753        O  0.95489195  0.36124490  0.15461094    -0.60610
H754        H  0.81099378  0.40481667  0.10437671     0.16330
O755        O  0.84115168  0.45721352  0.04705823    -0.60700
H756        H  0.81750909  0.43624003  0.03454823     0.43330
H757        H  0.96532599  0.33134901  0.14267133     0.43280
C758        C  0.57422149  0.07300148  0.43866887    -0.05780
C759        C  0.61179585  0.05162465  0.41782691    -0.33210
C760        C  0.63626556  0.07478818  0.38733966     0.36040
C761        C  0.62293705  0.12031878  0.37620217    -0.06140
C762        C  0.58586277  0.14200801  0.39695680    -0.33110
C763        C  0.56224979  0.11934815  0.42834941     0.35950
H764        H  0.62274711  0.01662542  0.42546018     0.16320
O765        O  0.67221410  0.05185486  0.36793647    -0.60610
H766        H  0.57512856  0.17708755  0.38908388     0.16330
O767        O  0.52664612  0.14254447  0.44772507    -0.60700
H768        H  0.54030140  0.17241947  0.45702478     0.43330
H769        H  0.70084772  0.05697269  0.38469208     0.43280
C770        C  0.62653640  0.37446091  0.12227241    -0.05780
C771        C  0.64774829  0.41443536  0.10633860    -0.33210
C772        C  0.62606170  0.43966177  0.07538319     0.36040
C773        C  0.58044400  0.42684541  0.06100107    -0.06140
C774        C  0.56282541  0.38329079  0.07334723    -0.33110
C775        C  0.58464692  0.35781686  0.10418575     0.35950
H776        H  0.68135980  0.42665049  0.11807089     0.16320
O777        O  0.65002667  0.47698599  0.05984888    -0.60610
H778        H  0.53110208  0.36911420  0.05978344     0.16330
O779        O  0.56379531  0.31743032  0.11702322    -0.60700
H780        H  0.57696855  0.29269069  0.09956463     0.43330
H781        H  0.67271980  0.46354851  0.04033276     0.43280
C782        C  0.87513496  0.12663833  0.12348564    -0.05780
C783        C  0.91812109  0.10468742  0.13245107    -0.33210
C784        C  0.94099018  0.07690354  0.10404572     0.36040
C785        C  0.92145091  0.07151112  0.06513567    -0.06140
C786        C  0.87901810  0.09554374  0.05595268    -0.33110
C787        C  0.85561487  0.12227704  0.08495775     0.35950
H788        H  0.93341692  0.10795706  0.16214638     0.16320
O789        O  0.98256668  0.05555609  0.11494808    -0.60610
H790        H  0.86355995  0.09338457  0.02628403     0.16330
O791        O  0.81371733  0.14402873  0.07537042    -0.60700
H792        H  0.82298684  0.17506137  0.06503737     0.43330
H793        H  0.97299767  0.02770479  0.13051123     0.43280
C794        C  0.61807816  0.12363239  0.12766437    -0.05780
C795        C  0.59373521  0.14746549  0.09736725    -0.33210
C796        C  0.57134113  0.12315225  0.06617659     0.36040
C797        C  0.57179227  0.07363599  0.06563152    -0.06140
C798        C  0.59286887  0.05076673  0.09840189    -0.33110
C799        C  0.61734626  0.07485189  0.12811157     0.35950
H800        H  0.59317518  0.18517921  0.09718880     0.16320
O801        O  0.54891545  0.14858339  0.03701782    -0.60610
H802        H  0.58906276  0.01388798  0.10215986     0.16330
O803        O  0.63818638  0.05029467  0.15877328    -0.60700
H804        H  0.66840680  0.03826808  0.14759626     0.43330
H805        H  0.57485572  0.16187338  0.02062863     0.43280
N806        N  0.69374125  0.33807575  0.70681154    -0.06430
N807        N  0.68771218  0.36731482  0.67667159    -0.58550
N808        N  0.66069798  0.30454058  0.79904336    -0.06110
N809        N  0.62963499  0.31251264  0.82784605    -0.60680
N810        N  0.69383469  0.33672714  0.79912480    -0.05710
N811        N  0.68593420  0.36736182  0.82778382    -0.58530
N812        N  0.66037879  0.30615643  0.70648207    -0.05390
N813        N  0.63102594  0.31306924  0.67610250    -0.61030
C814        C  0.64851193  0.35130758  0.65762033     0.95740
C815        C  0.64619749  0.35149447  0.84566322     0.95520
N816        N  0.69350531  0.16190722  0.79610036    -0.06620
N817        N  0.68621440  0.13039080  0.82416661    -0.59130
N818        N  0.65947360  0.19686311  0.70496739    -0.04740
N819        N  0.62777121  0.18890018  0.67654438    -0.60380
N820        N  0.69256665  0.16452862  0.70462477    -0.06650
N821        N  0.68398959  0.13370144  0.67638962    -0.59400
N822        N  0.66050226  0.19432330  0.79729693    -0.04380
N823        N  0.63009626  0.18547364  0.82637228    -0.60470
Mn824      Mn  0.65865122  0.25058265  0.75206154     1.18440
C825        C  0.64661218  0.14546434  0.84296050     0.97830
C826        C  0.64368692  0.14938026  0.65901589     0.98490
N827        N  0.80600822  0.33542332  0.79948151    -0.06670
N828        N  0.81455837  0.36508926  0.82880864    -0.62980
N829        N  0.83890395  0.30571553  0.70706536    -0.05470
N830        N  0.87027273  0.31473544  0.67880172    -0.63650
N831        N  0.80539130  0.33766979  0.70734888    -0.06170
N832        N  0.81291141  0.36880451  0.67904977    -0.63240
N833        N  0.83893846  0.30285279  0.79869413    -0.05070
N834        N  0.87055926  0.30963857  0.82733171    -0.63930
Mn835      Mn  0.74967500  0.33844925  0.75324724     1.10660
C836        C  0.85455750  0.34819466  0.84605302     0.99050
C837        C  0.85344293  0.35409229  0.66153131     0.99120
N838        N  0.80379110  0.16475564  0.70327970    -0.06180
N839        N  0.81015056  0.13600616  0.67292621    -0.61560
N840        N  0.83766772  0.19381455  0.79694200    -0.05500
N841        N  0.86662022  0.18633907  0.82749947    -0.58290
N842        N  0.80448630  0.16180102  0.79572468    -0.06810
N843        N  0.81019470  0.13178121  0.82520445    -0.61120
N844        N  0.83776145  0.19604400  0.70440070    -0.05800
N845        N  0.86830770  0.18888419  0.67507931    -0.58310
Mn846      Mn  0.74874086  0.16193954  0.74982247     1.20190
Mn847      Mn  0.83990916  0.24946589  0.75176583     1.10090
Cl848      Cl  0.74920748  0.25019998  0.75177269    -0.86280
C849        C  0.85018876  0.15178657  0.65543163     0.96050
C850        C  0.84889063  0.14755003  0.84491184     0.95850
C851        C  0.94774055  0.45582004  0.97072406    -0.02800
C852        C  0.94453828  0.04257163  0.97132144    -0.02800
C853        C  0.54973571  0.45836774  0.96971580    -0.02800
C854        C  0.54814329  0.04466761  0.97068731    -0.02800
C855        C  0.52174346  0.00138318  0.95499803     0.00250
C856        C  0.97287748  0.00026144  0.95528507     0.00250
C857        C  0.94672409  0.45647886  0.53263022    -0.02800
C858        C  0.55169296  0.45718427  0.53135297    -0.02800
C859        C  0.97575992  0.42941673  0.50200271     0.00250
C860        C  0.52302235  0.43041740  0.50084843     0.00250
C861        C  0.54832327  0.04393923  0.53285616    -0.02800
C862        C  0.97389694  0.99898266  0.54819906     0.00250
C863        C  0.52314367  0.99947985  0.54802292     0.00250
C864        C  0.58158073  0.02496363  0.50151799     0.00250
C865        C  0.58270720  0.47901636  0.50011179     0.00250
C866        C  0.97251866  0.06946022  0.50231172     0.00250
C867        C  0.51959452  0.07011546  0.50191665     0.00250
C868        C  0.94590297  0.04186107  0.53320725    -0.02800
C869        C  0.91436911  0.47581207  0.50107001     0.00250
C870        C  0.91310396  0.02140104  0.50208962     0.00250
C871        C  0.88083695  0.37234947  0.87773755    -0.05780
C872        C  0.87028916  0.36377608  0.91793582    -0.33210
C873        C  0.89275604  0.38914786  0.94848242     0.36040
C874        C  0.92582399  0.42436345  0.93873750    -0.06140
C875        C  0.93854020  0.43005144  0.89815776    -0.33110
C876        C  0.91604342  0.40470142  0.86790433     0.35950
H877        H  0.84417624  0.33767395  0.92567356     0.16320
O878        O  0.88287113  0.37877406  0.98769656    -0.60610
H879        H  0.96478946  0.45537863  0.88935246     0.16330
O880        O  0.92833068  0.41216061  0.82868544    -0.60700
H881        H  0.90769254  0.43809456  0.81951239     0.43330
H882        H  0.84795181  0.38144546  0.99041929     0.43280
C883        C  0.87076448  0.12285436  0.87910337    -0.05780
C884        C  0.86033091  0.07577222  0.88481186    -0.33210
C885        C  0.88270481  0.04982893  0.91500490     0.36040
C886        C  0.91664314  0.07102941  0.94034568    -0.06140
C887        C  0.92299121  0.11950249  0.93701311    -0.33110
C888        C  0.90126080  0.14515081  0.90631852     0.35950
H889        H  0.83494022  0.05858196  0.86543608     0.16320
O890        O  0.86848423  0.00485219  0.92157841    -0.60610
H891        H  0.94389572  0.13815361  0.95873750     0.16330
O892        O  0.90956485  0.19205446  0.90367982    -0.60700
H893        H  0.88437575  0.20684573  0.92004327     0.43330
H894        H  0.86494214  0.98997948  0.89493329     0.43280
C895        C  0.57446259  0.42930045  0.93740086    -0.05780
C896        C  0.57015957  0.44172066  0.89661773    -0.33210
C897        C  0.59356243  0.41659132  0.86673506     0.36040
C898        C  0.62066664  0.37731770  0.87683886    -0.06140
C899        C  0.62461194  0.36386085  0.91694445    -0.33110
C900        C  0.60240857  0.38975170  0.94717755     0.35950
H901        H  0.54953809  0.47169453  0.88746493     0.16320
O902        O  0.58927713  0.43037788  0.82753014    -0.60610
H903        H  0.64575211  0.33367675  0.92495285     0.16330
O904        O  0.60802144  0.37567302  0.98611543    -0.60700
H905        H  0.63945559  0.38778380  0.99444188     0.43330
H906        H  0.61458123  0.45384608  0.82357365     0.43280
C907        C  0.92052192  0.42975759  0.56569569    -0.05780
C908        C  0.94757228  0.40811839  0.59572711    -0.33210
C909        C  0.92660604  0.38166010  0.62604331     0.36040
C910        C  0.87698011  0.37930175  0.62873173    -0.06140
C911        C  0.84929011  0.40435562  0.60138783    -0.33110
C912        C  0.87018312  0.42958158  0.57019474     0.35950
H913        H  0.98502122  0.41402751  0.59708989     0.16320
O914        O  0.95489156  0.36124990  0.65461372    -0.60610
H915        H  0.81099324  0.40481135  0.60437332     0.16330
O916        O  0.84115048  0.45720692  0.54705386    -0.60700
H917        H  0.81751092  0.43623091  0.53454293     0.43330
H918        H  0.96532685  0.33135353  0.64267576     0.43280
C919        C  0.57422115  0.07300104  0.93866853    -0.05780
C920        C  0.61179690  0.05162497  0.91782774    -0.33210
C921        C  0.63626683  0.07478871  0.88734074     0.36040
C922        C  0.62293710  0.12031867  0.87620226    -0.06140
C923        C  0.58586117  0.14200697  0.89695552    -0.33110
C924        C  0.56224779  0.11934688  0.92834775     0.35950
H925        H  0.62274906  0.01662621  0.92546176     0.16320
O926        O  0.67221689  0.05185623  0.86793882    -0.60610
H927        H  0.57512574  0.17708588  0.88908167     0.16330
O928        O  0.52664176  0.14254191  0.94772144    -0.60700
H929        H  0.54029532  0.17241726  0.95702216     0.43330
H930        H  0.70084979  0.05697569  0.88469493     0.43280
C931        C  0.62653597  0.37445994  0.62227217    -0.05780
C932        C  0.64774989  0.41443213  0.60633614    -0.33210
C933        C  0.62606357  0.43965847  0.57538055     0.36040
C934        C  0.58044395  0.42684479  0.56100081    -0.06140
C935        C  0.56282302  0.38329192  0.57334905    -0.33110
C936        C  0.58464447  0.35781781  0.60418752     0.35950
H937        H  0.68136285  0.42664553  0.61806681     0.16320
O938        O  0.65003034  0.47698053  0.55984435    -0.60610
H939        H  0.53109815  0.36911679  0.55978672     0.16330
O940        O  0.56379083  0.31743315  0.61702700    -0.60700
H941        H  0.57696126  0.29269200  0.59956850     0.43330
H942        H  0.67272171  0.46354082  0.54032791     0.43280
C943        C  0.87513499  0.12663808  0.62348589    -0.05780
C944        C  0.91812027  0.10468583  0.63245178    -0.33210
C945        C  0.94098939  0.07690201  0.60404640     0.36040
C946        C  0.92145089  0.07151089  0.56513592    -0.06140
C947        C  0.87901900  0.09554484  0.55595253    -0.33110
C948        C  0.85561577  0.12227816  0.58495758     0.35950
H949        H  0.93341547  0.10795452  0.66214740     0.16320
O950        O  0.98256530  0.05555361  0.61494907    -0.60610
H951        H  0.86356157  0.09338668  0.52628354     0.16330
O952        O  0.81371907  0.14403118  0.57536983    -0.60700
H953        H  0.82298971  0.17506377  0.56503742     0.43330
H954        H  0.97299545  0.02770217  0.63051167     0.43280
C955        C  0.61807772  0.12363186  0.62766514    -0.05780
C956        C  0.59372938  0.14746504  0.59737113    -0.33210
C957        C  0.57133466  0.12315218  0.56618052     0.36040
C958        C  0.57179149  0.07363599  0.56563210    -0.06140
C959        C  0.59287316  0.05076619  0.59839976    -0.33110
C960        C  0.61735053  0.07485123  0.62810952     0.35950
H961        H  0.59316512  0.18517872  0.59719517     0.16320
O962        O  0.54890198  0.14858348  0.53702561    -0.60610
H963        H  0.58907038  0.01388701  0.60215594     0.16330
O964        O  0.63819503  0.05029340  0.65876876    -0.60700
H965        H  0.66841560  0.03827008  0.64758945     0.43330
H966        H  0.57483847  0.16188460  0.52063886     0.43280
N967        N  0.69374183  0.83807566  0.20681112    -0.06430
N968        N  0.68771304  0.86731478  0.17667118    -0.58550
N969        N  0.66069785  0.80454083  0.29904272    -0.06110
N970        N  0.62963468  0.81251317  0.32784523    -0.60680
N971        N  0.69383474  0.83672724  0.29912428    -0.05710
N972        N  0.68593422  0.86736202  0.32778322    -0.58530
N973        N  0.66037926  0.80615646  0.20648152    -0.05390
N974        N  0.63102661  0.81306938  0.17610185    -0.61030
C975        C  0.64851286  0.85130766  0.15761978     0.95740
C976        C  0.64619726  0.85149495  0.34566241     0.95520
N977        N  0.69350445  0.66190709  0.29609992    -0.06620
N978        N  0.68621335  0.63039066  0.32416612    -0.59130
N979        N  0.65947353  0.69686325  0.20496659    -0.04740
N980        N  0.62777165  0.68890087  0.17654304    -0.60380
N981        N  0.69256629  0.66452847  0.20462425    -0.06650
N982        N  0.68398943  0.63370149  0.17638885    -0.59400
N983        N  0.66050149  0.69432327  0.29729643    -0.04380
N984        N  0.63009538  0.68547365  0.32637173    -0.60470
Mn985      Mn  0.65865107  0.75058275  0.25206094     1.18440
C986        C  0.64661112  0.64546426  0.34295995     0.97830
C987        C  0.64368737  0.64938094  0.15901456     0.98490
N988        N  0.80600836  0.83542345  0.29948115    -0.06670
N989        N  0.81455893  0.86509008  0.32880765    -0.62980
N990        N  0.83890435  0.80571511  0.20706537    -0.05470
N991        N  0.87027327  0.81473487  0.17880178    -0.63650
N992        N  0.80539180  0.83766946  0.20734871    -0.06170
N993        N  0.81291212  0.86880410  0.17904958    -0.63240
N994        N  0.83893819  0.80285250  0.29869435    -0.05070
N995        N  0.87055891  0.80963847  0.32733196    -0.63930
Mn996      Mn  0.74967530  0.83844915  0.25324687     1.10660
C997        C  0.85455767  0.84819529  0.34605250     0.99050
C998        C  0.85344367  0.85409176  0.16153123     0.99120
N999        N  0.80379073  0.66475541  0.20327972    -0.06180
N1000       N  0.81015004  0.63600620  0.17292603    -0.61560
N1001       N  0.83766693  0.69381423  0.29694217    -0.05500
N1002       N  0.86661926  0.68633878  0.32749974    -0.58290
N1003       N  0.80448545  0.66180076  0.29572476    -0.06810
N1004       N  0.81019365  0.63178101  0.32520462    -0.61120
N1005       N  0.83776124  0.69604361  0.20440094    -0.05800
N1006       N  0.86830749  0.68888390  0.17507954    -0.58310
Mn1007     Mn  0.74874025  0.66193933  0.24982226     1.20190
Mn1008     Mn  0.83990895  0.74946550  0.25176603     1.10090
Cl1009     Cl  0.74920730  0.75019983  0.25177249    -0.86280
C1010       C  0.85018838  0.65178653  0.15543162     0.96050
C1011       C  0.84888952  0.64754983  0.34491212     0.95850
C1012       C  0.94774145  0.95582055  0.47072342    -0.02800
C1013       C  0.94453766  0.54257179  0.47132159    -0.02800
C1014       C  0.54973672  0.95836842  0.46971558    -0.02800
C1015       C  0.54814274  0.54466761  0.47068732    -0.02800
C1016       C  0.52174277  0.50138323  0.45499809     0.00250
C1017       C  0.97287682  0.50026160  0.45528521     0.00250
C1018       C  0.94672479  0.95647866  0.03263011    -0.02800
C1019       C  0.55169364  0.95718433  0.03135287    -0.02800
C1020       C  0.97576063  0.92941656  0.00200257     0.00250
C1021       C  0.52302313  0.93041735  0.00084832     0.00250
C1022       C  0.54832300  0.54393913  0.03285566    -0.02800
C1023       C  0.97389659  0.49898312  0.04819923     0.00250
C1024       C  0.52314309  0.49948009  0.04802279     0.00250
C1025       C  0.58157993  0.52496315  0.00151741     0.00250
C1026       C  0.58270790  0.97901649  0.00011179     0.00250
C1027       C  0.97251838  0.56946011  0.00231134     0.00250
C1028       C  0.51959395  0.57011525  0.00191620     0.00250
C1029       C  0.94590261  0.54186138  0.03320704    -0.02800
C1030       C  0.91436975  0.97581185  0.00106990     0.00250
C1031       C  0.91310351  0.52140118  0.00208951     0.00250
C1032       C  0.88083748  0.87235077  0.37773643    -0.05780
C1033       C  0.87029698  0.86377102  0.41793508    -0.33210
C1034       C  0.89276368  0.88914326  0.44848154     0.36040
C1035       C  0.92582493  0.92436477  0.43873619    -0.06140
C1036       C  0.93853453  0.93005916  0.39815556    -0.33110
C1037       C  0.91603705  0.90470953  0.36790229     0.35950
H1038       H  0.84418957  0.83766377  0.42567328     0.16320
O1039       O  0.88288607  0.87876368  0.48769593    -0.60610
H1040       H  0.96477888  0.95539099  0.38934952     0.16330
O1041       O  0.92831735  0.91217517  0.32868274    -0.60700
H1042       H  0.90767419  0.93810745  0.31951423     0.43330
H1043       H  0.84796639  0.88142562  0.49042194     0.43280
C1044       C  0.87076325  0.62285430  0.37910377    -0.05780
C1045       C  0.86032904  0.57577238  0.38481287    -0.33210
C1046       C  0.88270315  0.54982915  0.41500587     0.36040
C1047       C  0.91664235  0.57102950  0.44034593    -0.06140
C1048       C  0.92299106  0.61950243  0.43701282    -0.33110
C1049       C  0.90126039  0.64515066  0.40631834     0.35950
H1050       H  0.83493770  0.55858227  0.36543761     0.16320
O1051       O  0.86848189  0.50485275  0.42158017    -0.60610
H1052       H  0.94389629  0.63815350  0.45873671     0.16330
O1053       O  0.90956509  0.69205417  0.40367912    -0.60700
H1054       H  0.88437648  0.70684598  0.42004273     0.43330
H1055       H  0.86493826  0.48997978  0.39493531     0.43280
C1056       C  0.57446316  0.92930105  0.43740045    -0.05780
C1057       C  0.57015771  0.94171980  0.39661716    -0.33210
C1058       C  0.59356046  0.91659055  0.36673434     0.36040
C1059       C  0.62066656  0.87731817  0.37683817    -0.06140
C1060       C  0.62461374  0.86386242  0.41694391    -0.33110
C1061       C  0.60241058  0.88975328  0.44717711     0.35950
H1062       H  0.54953433  0.97169243  0.38746437     0.16320
O1063       O  0.58927333  0.93037603  0.32752928    -0.60610
H1064       H  0.64575514  0.83367914  0.42495230     0.16330
O1065       O  0.60802486  0.87567540  0.48611508    -0.60700
H1066       H  0.63945970  0.88778558  0.49444030     0.43330
H1067       H  0.61457671  0.95384471  0.32357166     0.43280
C1068       C  0.92052273  0.92975726  0.06569559    -0.05780
C1069       C  0.94757318  0.90811626  0.09572599    -0.33210
C1070       C  0.92660689  0.88165789  0.12604214     0.36040
C1071       C  0.87698093  0.87930114  0.12873156    -0.06140
C1072       C  0.84929107  0.90435665  0.10138863    -0.33110
C1073       C  0.87018410  0.92958280  0.07019565     0.35950
H1074       H  0.98502235  0.91402389  0.09708797     0.16320
O1075       O  0.95489254  0.86124598  0.15461155    -0.60610
H1076       H  0.81099429  0.90481364  0.10437487     0.16330
O1077       O  0.84115184  0.95720993  0.04705601    -0.60700
H1078       H  0.81751102  0.93623519  0.03454519     0.43330
H1079       H  0.96532714  0.83134997  0.14267250     0.43280
C1080       C  0.57422053  0.57300108  0.43866845    -0.05780
C1081       C  0.61179576  0.55162479  0.41782719    -0.33210
C1082       C  0.63626546  0.57478845  0.38733999     0.36040
C1083       C  0.62293605  0.62031860  0.37620179    -0.06140
C1084       C  0.58586068  0.64200716  0.39695556    -0.33110
C1085       C  0.56224760  0.61934715  0.42834803     0.35950
H1086       H  0.62274772  0.51662591  0.42546101     0.16320
O1087       O  0.67221499  0.55185570  0.36793761    -0.60610
H1088       H  0.57512558  0.67708626  0.38908201     0.16330
O1089       O  0.52664247  0.64254265  0.44772248    -0.60700
H1090       H  0.54029685  0.67241762  0.45702320     0.43330
H1091       H  0.70084816  0.55697464  0.38469352     0.43280
C1092       C  0.62653705  0.87446023  0.12227175    -0.05780
C1093       C  0.64774985  0.91443372  0.10633708    -0.33210
C1094       C  0.62606335  0.93966021  0.07538171     0.36040
C1095       C  0.58044475  0.92684512  0.06100070    -0.06140
C1096       C  0.56282517  0.88329119  0.07334759    -0.33110
C1097       C  0.58464672  0.85781704  0.10418594     0.35950
H1098       H  0.68136201  0.92664805  0.11806868     0.16320
O1099       O  0.65002912  0.97698353  0.05984664    -0.60610
H1100       H  0.53110116  0.86911529  0.05978442     0.16330
O1101       O  0.56379431  0.81743120  0.11702410    -0.60700
H1102       H  0.57696654  0.79269101  0.09956557     0.43330
H1103       H  0.67272154  0.96354512  0.04033040     0.43280
C1104       C  0.87513442  0.62663836  0.12348561    -0.05780
C1105       C  0.91812162  0.60468916  0.13245041    -0.33210
C1106       C  0.94099072  0.57690537  0.10404503     0.36040
C1107       C  0.92145044  0.57151145  0.06513551    -0.06140
C1108       C  0.87901643  0.59554235  0.05595311    -0.33110
C1109       C  0.85561320  0.62227549  0.08495827     0.35950
H1110       H  0.93341828  0.60795993  0.16214533     0.16320
O1111       O  0.98256803  0.55555916  0.11494690    -0.60610
H1112       H  0.86355735  0.59338203  0.02628487     0.16330
O1113       O  0.81371458  0.64402555  0.07537154    -0.60700
H1114       H  0.82298265  0.67505830  0.06503781     0.43330
H1115       H  0.97300016  0.52770799  0.13051074     0.43280
C1116       C  0.61807827  0.62363267  0.12766375    -0.05780
C1117       C  0.59373908  0.64746573  0.09736447    -0.33210
C1118       C  0.57134543  0.62315226  0.06617373     0.36040
C1119       C  0.57179258  0.57363595  0.06563094    -0.06140
C1120       C  0.59286580  0.55076703  0.09840310    -0.33110
C1121       C  0.61734318  0.57485226  0.12811279     0.35950
H1122       H  0.59318197  0.68517948  0.09718432     0.16320
O1123       O  0.54892462  0.64858332  0.03701229    -0.60610
H1124       H  0.58905743  0.51388858  0.10216227     0.16330
O1125       O  0.63818025  0.55029540  0.15877619    -0.60700
H1126       H  0.66840058  0.53826658  0.14760075     0.43330
H1127       H  0.57486754  0.66186503  0.02062109     0.43280
N1128       N  0.69374168  0.83807559  0.70681111    -0.06430
N1129       N  0.68771278  0.86731447  0.67667100    -0.58550
N1130       N  0.66069814  0.80454092  0.79904297    -0.06110
N1131       N  0.62963521  0.81251312  0.82784567    -0.60680
N1132       N  0.69383496  0.83672738  0.79912435    -0.05710
N1133       N  0.68593463  0.86736210  0.82778337    -0.58530
N1134       N  0.66037909  0.80615640  0.70648175    -0.05390
N1135       N  0.63102632  0.81306910  0.67610211    -0.61030
C1136       C  0.64851251  0.85130724  0.65761979     0.95740
C1137       C  0.64619787  0.85149490  0.84566280     0.95520
N1138       N  0.69350477  0.66190733  0.79610028    -0.06620
N1139       N  0.68621365  0.63039085  0.82416644    -0.59130
N1140       N  0.65947343  0.69686317  0.70496712    -0.04740
N1141       N  0.62777123  0.68890043  0.67654390    -0.60380
N1142       N  0.69256637  0.66452858  0.70462463    -0.06650
N1143       N  0.68398939  0.63370146  0.67638939    -0.59400
N1144       N  0.66050177  0.69432346  0.79729679    -0.04380
N1145       N  0.63009558  0.68547373  0.82637200    -0.60470
Mn1146     Mn  0.65865116  0.75058280  0.75206128     1.18440
C1147       C  0.64661135  0.64546436  0.84296022     0.97830
C1148       C  0.64368693  0.64938048  0.65901543     0.98490
N1149       N  0.80600853  0.83542363  0.79948113    -0.06670
N1150       N  0.81455892  0.86508995  0.82880792    -0.62980
N1151       N  0.83890437  0.80571520  0.70706523    -0.05470
N1152       N  0.87027327  0.81473488  0.67880161    -0.63650
N1153       N  0.80539177  0.83766950  0.70734850    -0.06170
N1154       N  0.81291200  0.86880401  0.67904923    -0.63240
N1155       N  0.83893852  0.80285285  0.79869409    -0.05070
N1156       N  0.87055930  0.80963874  0.82733166    -0.63930
Mn1157     Mn  0.74967535  0.83844928  0.75324681     1.10660
C1158       C  0.85455786  0.84819525  0.84605254     0.99050
C1159       C  0.85344356  0.85409163  0.66153093     0.99120
N1160       N  0.80379083  0.66475552  0.70327989    -0.06180
N1161       N  0.81015016  0.63600617  0.67292630    -0.61560
N1162       N  0.83766714  0.69381465  0.79694232    -0.05500
N1163       N  0.86661935  0.68633931  0.82750001    -0.58290
N1164       N  0.80448567  0.66180117  0.79572491    -0.06810
N1165       N  0.81019376  0.63178151  0.82520483    -0.61120
N1166       N  0.83776132  0.69604374  0.70440100    -0.05800
N1167       N  0.86830754  0.68888395  0.67507959    -0.58310
Mn1168     Mn  0.74874045  0.66193956  0.74982251     1.20190
Mn1169     Mn  0.83990911  0.74946575  0.75176597     1.10090
Cl1170     Cl  0.74920743  0.75020001  0.75177258    -0.86280
C1171       C  0.85018845  0.65178649  0.65543181     0.96050
C1172       C  0.84888952  0.64755040  0.84491241     0.95850
C1173       C  0.94774135  0.95582021  0.97072371    -0.02800
C1174       C  0.94453771  0.54257158  0.97132138    -0.02800
C1175       C  0.54973662  0.95836812  0.96971569    -0.02800
C1176       C  0.54814249  0.54466726  0.97068701    -0.02800
C1177       C  0.52174259  0.50138278  0.95499798     0.00250
C1178       C  0.97287673  0.50026116  0.95528508     0.00250
C1179       C  0.94672474  0.95647850  0.53262983    -0.02800
C1180       C  0.55169373  0.95718430  0.53135279    -0.02800
C1181       C  0.97576076  0.92941670  0.50200222     0.00250
C1182       C  0.52302330  0.93041752  0.50084808     0.00250
C1183       C  0.54832287  0.54393920  0.53285595    -0.02800
C1184       C  0.97389649  0.49898298  0.54819922     0.00250
C1185       C  0.52314310  0.49948000  0.54802294     0.00250
C1186       C  0.58158006  0.52496334  0.50151774     0.00250
C1187       C  0.58270798  0.97901667  0.50011179     0.00250
C1188       C  0.97251828  0.56946025  0.50231159     0.00250
C1189       C  0.51959401  0.57011537  0.50191646     0.00250
C1190       C  0.94590255  0.54186133  0.53320723    -0.02800
C1191       C  0.91436977  0.97581186  0.50106969     0.00250
C1192       C  0.91310347  0.52140123  0.50208968     0.00250
C1193       C  0.88083745  0.87235027  0.87773687    -0.05780
C1194       C  0.87029241  0.86377440  0.91793527    -0.33210
C1195       C  0.89275930  0.88914622  0.94848186     0.36040
C1196       C  0.92582480  0.92436400  0.93873684    -0.06140
C1197       C  0.93853852  0.93005446  0.89815677    -0.33110
C1198       C  0.91604142  0.90470470  0.86790336     0.35950
H1199       H  0.84418151  0.83767038  0.92567315     0.16320
O1200       O  0.88287710  0.87877019  0.98769607    -0.60610
H1201       H  0.96478595  0.95538339  0.88935123     0.16330
O1202       O  0.92832613  0.91216633  0.82868424    -0.60700
H1203       H  0.90768623  0.93809975  0.81951291     0.43330
H1204       H  0.84795767  0.88143838  0.99042008     0.43280
C1205       C  0.87076327  0.62285463  0.87910388    -0.05780
C1206       C  0.86033102  0.57577206  0.88481131    -0.33210
C1207       C  0.88270520  0.54982865  0.91500409     0.36040
C1208       C  0.91664244  0.57102940  0.94034572    -0.06140
C1209       C  0.92298900  0.61950282  0.93701426    -0.33110
C1210       C  0.90125833  0.64515131  0.90631989     0.35950
H1211       H  0.83494130  0.55858153  0.86543481     0.16320
O1212       O  0.86848600  0.50485126  0.92157630    -0.60610
H1213       H  0.94389254  0.63815402  0.95873930     0.16330
O1214       O  0.90956082  0.69205531  0.90368225    -0.60700
H1215       H  0.88437083  0.70684529  0.92004557     0.43330
H1216       H  0.86494629  0.48997905  0.89493075     0.43280
C1217       C  0.57446342  0.92930089  0.93740066    -0.05780
C1218       C  0.57015909  0.94172032  0.89661745    -0.33210
C1219       C  0.59356186  0.91659101  0.86673470     0.36040
C1220       C  0.62066721  0.87731816  0.87683853    -0.06140
C1221       C  0.62461371  0.86386202  0.91694422    -0.33110
C1222       C  0.60241039  0.88975283  0.94717736     0.35950
H1223       H  0.54953659  0.97169351  0.88746465     0.16320
O1224       O  0.58927539  0.93037687  0.82752968    -0.60610
H1225       H  0.64575470  0.83367847  0.92495262     0.16330
O1226       O  0.60802425  0.87567473  0.98611530    -0.60700
H1227       H  0.63945864  0.88778556  0.99444104     0.43330
H1228       H  0.61457906  0.95384535  0.82357246     0.43280
C1229       C  0.92052259  0.92975680  0.56569513    -0.05780
C1230       C  0.94757292  0.90811835  0.59572700    -0.33210
C1231       C  0.92660673  0.88165999  0.62604321     0.36040
C1232       C  0.87698079  0.87930082  0.62873118    -0.06140
C1233       C  0.84929073  0.90435367  0.60138665    -0.33110
C1234       C  0.87018370  0.92957960  0.57019352     0.35950
H1235       H  0.98502177  0.91402816  0.59709015     0.16320
O1236       O  0.95489219  0.86125061  0.65461409    -0.60610
H1237       H  0.81099379  0.90480863  0.60437166     0.16330
O1238       O  0.84115070  0.95720363  0.54705182    -0.60700
H1239       H  0.81751285  0.93622646  0.53454004     0.43330
H1240       H  0.96532798  0.83135417  0.64267657     0.43280
C1241       C  0.57422013  0.57300062  0.93866803    -0.05780
C1242       C  0.61179694  0.55162521  0.91782811    -0.33210
C1243       C  0.63626688  0.57478912  0.88734119     0.36040
C1244       C  0.62293607  0.62031853  0.87620185    -0.06140
C1245       C  0.58585882  0.64200603  0.89695407    -0.33110
C1246       C  0.56224530  0.61934575  0.92834611     0.35950
H1247       H  0.62274992  0.51662687  0.92546276     0.16320
O1248       O  0.67221814  0.55185734  0.86794024    -0.60610
H1249       H  0.57512231  0.67708438  0.88907944     0.16330
O1250       O  0.52663746  0.64253976  0.94771830    -0.60700
H1251       H  0.54028982  0.67241518  0.95702011     0.43330
H1252       H  0.70085049  0.55697813  0.88469672     0.43280
C1253       C  0.62653664  0.87445949  0.62227159    -0.05780
C1254       C  0.64775115  0.91443107  0.60633504    -0.33210
C1255       C  0.62606489  0.93965749  0.57537950     0.36040
C1256       C  0.58044468  0.92684463  0.56100047    -0.06140
C1257       C  0.56282310  0.88329220  0.57334916    -0.33110
C1258       C  0.58464459  0.85781792  0.60418748     0.35950
H1259       H  0.68136452  0.92664395  0.61806528     0.16320
O1260       O  0.65003215  0.97697902  0.55984287    -0.60610
H1261       H  0.53109776  0.86911755  0.55978724     0.16330
O1262       O  0.56379045  0.81743369  0.61702738    -0.60700
H1263       H  0.57696027  0.79269220  0.59956892     0.43330
H1264       H  0.67272312  0.96353875  0.54032637     0.43280
C1265       C  0.87513453  0.62663817  0.62348592    -0.05780
C1266       C  0.91812082  0.60468751  0.63245121    -0.33210
C1267       C  0.94098992  0.57690377  0.60404579     0.36040
C1268       C  0.92145048  0.57151126  0.56513581    -0.06140
C1269       C  0.87901748  0.59554364  0.55595297    -0.33110
C1270       C  0.85561426  0.62227681  0.58495811     0.35950
H1271       H  0.93341678  0.60795724  0.66214647     0.16320
O1272       O  0.98256659  0.55555653  0.61494800    -0.60610
H1273       H  0.86355919  0.59338441  0.52628437     0.16330
O1274       O  0.81371657  0.64402832  0.57537093    -0.60700
H1275       H  0.82298588  0.67506102  0.56503790     0.43330
H1276       H  0.97299782  0.52770522  0.63051125     0.43280
C1277       C  0.61807780  0.62363212  0.62766460    -0.05780
C1278       C  0.59373199  0.64746526  0.59736911    -0.33210
C1279       C  0.57133754  0.62315222  0.56617847     0.36040
C1280       C  0.57179167  0.57363599  0.56563162    -0.06140
C1281       C  0.59287109  0.55076645  0.59840049    -0.33110
C1282       C  0.61734846  0.57485154  0.62811023     0.35950
H1283       H  0.59316970  0.68517896  0.59719198     0.16320
O1284       O  0.54890816  0.64858344  0.53702173    -0.60610
H1285       H  0.58906677  0.51388748  0.60215750     0.16330
O1286       O  0.63819092  0.55029398  0.65877060    -0.60700
H1287       H  0.66841144  0.53826917  0.64759236     0.43330
H1288       H  0.57484643  0.66187862  0.52063340     0.43280
loop_ 
_geom_bond_atom_site_label_1 
_geom_bond_atom_site_label_2 
_geom_bond_distance 
_geom_bond_site_symmetry_2 
_ccdc_geom_bond_type 
N1            N2   1.320       .  A
N1            N7   1.315       .  A
N1          Mn30   2.208       .  S
N2            C9   1.355       .  A
N3            N5   1.316       .  A
N3            N4   1.322       .  A
N3          Mn19   2.207       .  S
N4           C10   1.353       .  A
N5            N6   1.320       .  A
N5          Mn30   2.199       .  S
N6           C10   1.351       .  A
N7            N8   1.321       .  A
N7          Mn19   2.205       .  S
N8            C9   1.354       .  A
C9          C126   1.487       .  S
C10          C93   1.468       .  S
N11          N17   1.315       .  A
N11          N12   1.319       .  A
N11         Mn41   2.196       .  S
N12          C20   1.352       .  A
N13          N14   1.322       .  A
N13          N15   1.315       .  A
N13         Mn19   2.205       .  S
N14          C21   1.354       .  A
N15          N16   1.317       .  A
N15         Mn41   2.185       .  S
N16          C21   1.350       .  A
N17          N18   1.321       .  A
N17         Mn19   2.211       .  S
N18          C20   1.356       .  A
Mn19        Cl43   2.552       .  S
C20         C117   1.484       .  S
C21         C150   1.471       .  S
N22          N23   1.321       .  A
N22          N28   1.317       .  A
N22         Mn30   2.212       .  S
N23          C31   1.353       .  A
N24          N26   1.315       .  A
N24          N25   1.321       .  A
N24         Mn42   2.199       .  S
N25          C32   1.353       .  A
N26          N27   1.318       .  A
N26         Mn30   2.197       .  S
N27          C32   1.352       .  A
N28          N29   1.320       .  A
N28         Mn42   2.194       .  S
N29          C31   1.350       .  A
Mn30        Cl43   2.537       .  S
C31          C66   1.466       .  S
C32         C105   1.473       .  S
N33          N34   1.320       .  A
N33          N39   1.316       .  A
N33         Mn41   2.200       .  S
N34          C44   1.351       .  A
N35          N36   1.321       .  A
N35          N37   1.314       .  A
N35         Mn42   2.198       .  S
N36          C45   1.354       .  A
N37          N38   1.317       .  A
N37         Mn41   2.191       .  S
N38          C45   1.352       .  A
N39          N40   1.321       .  A
N39         Mn42   2.206       .  S
N40          C44   1.353       .  A
Mn41        Cl43   2.537       .  S
Mn42        Cl43   2.556       .  S
C44         C138   1.469       .  S
C45          C78   1.476       .  S
C46          C69   1.530       .  S
C46         C373   1.551       .  S
C46         C215   1.510       .  S
C46         C225   1.498       .  S
C47          C81   1.532       .  S
C47          C51   1.550       .  S
C47         C222   1.513       .  S
C47         C226   1.489       .  S
C48          C90   1.533       .  S
C48         C372   1.544       .  S
C48         C216   1.516       .  S
C48         C221   1.498       .  S
C49         C114   1.533       .  S
C49          C50   1.543       .  S
C49         C220   1.503       .  S
C49         C223   1.507       .  S
C50         C370   1.544   1_545  S
C50         C695   1.378   1_455  D
C51         C368   1.551   1_545  S
C51         C694   1.378       .  D
C52         C102   1.536       .  S
C52          C54   1.524       .  S
C52          C64   1.497       .  S
C52         C379   1.534       .  S
C53         C129   1.545       .  S
C53          C55   1.511       .  S
C53          C60   1.501       .  S
C53         C380   1.560       .  S
C54         C207   1.510   1_554  S
C54         C699   1.333       .  D
C55         C209   1.516   1_554  S
C55         C698   1.333   1_455  D
C56         C153   1.537       .  S
C56          C58   1.549   1_545  S
C56          C59   1.508       .  S
C56          C62   1.509       .  S
C57          C63   1.543   1_565  S
C57         C374   1.534       .  S
C57         C702   1.388       .  D
C58         C375   1.560       .  S
C58         C701   1.388   1_455  D
C59         C210   1.503   1_554  S
C59         C382   1.322   1_545  D
C60         C209   1.498   1_554  S
C60         C381   1.322       .  D
C61          C63   1.504       .  S
C61         C208   1.513   1_554  S
C61         C706   1.327       .  D
C62         C210   1.507   1_554  S
C62         C705   1.327   1_455  D
C63         C141   1.530       .  S
C63          C65   1.509       .  S
C64         C207   1.498   1_554  S
C64         C387   1.311       .  D
C65         C208   1.489   1_554  S
C65         C386   1.311   1_545  D
C66          C67   1.397       .  A
C66          C71   1.401       .  A
C67          C68   1.405       .  A
C67          H72   1.084       .  S
C68          C69   1.416       .  A
C68          O73   1.372       .  S
C69          C70   1.412       .  A
C70          C71   1.398       .  A
C70          H74   1.080       .  S
C71          O75   1.372       .  S
O73          H77   0.991       .  S
O75          H76   0.992       .  S
C78          C79   1.398       .  A
C78          C83   1.405       .  A
C79          C80   1.400       .  A
C79          H84   1.084       .  S
C80          C81   1.415       .  A
C80          O85   1.372       .  S
C81          C82   1.409       .  A
C82          C83   1.400       .  A
C82          H86   1.077       .  S
C83          O87   1.372       .  S
O85          H89   0.992   1_545  S
O87          H88   0.992       .  S
C90          C91   1.412       .  A
C90          C95   1.418       .  A
C91          C92   1.398       .  A
C91          H96   1.081       .  S
C92          C93   1.401       .  A
C92          O97   1.372       .  S
C93          C94   1.397       .  A
C94          C95   1.402       .  A
C94          H98   1.084       .  S
C95          O99   1.369       .  S
O97         H101   0.992       .  S
O99         H100   0.992       .  S
C102        C103   1.402       .  A
C102        C107   1.427       .  A
C103        C104   1.398       .  A
C103        H108   1.070       .  S
C104        C105   1.403       .  A
C104        O109   1.371       .  S
C105        C106   1.397       .  A
C106        C107   1.400       .  A
C106        H110   1.084       .  S
C107        O111   1.374       .  S
O109        H113   0.992       .  S
O111        H112   0.991       .  S
C114        C115   1.408       .  A
C114        C119   1.415       .  A
C115        C116   1.400       .  A
C115        H120   1.081       .  S
C116        C117   1.410       .  A
C116        O121   1.371       .  S
C117        C118   1.400       .  A
C118        C119   1.403       .  A
C118        H122   1.084       .  S
C119        O123   1.367       .  S
O121        H125   0.992       .  S
O123        H124   0.992       .  S
C126        C127   1.402       .  A
C126        C131   1.409       .  A
C127        C128   1.400       .  A
C127        H132   1.083       .  S
C128        C129   1.421       .  A
C128        O133   1.371       .  S
C129        C130   1.409       .  A
C130        C131   1.402       .  A
C130        H134   1.082       .  S
C131        O135   1.371       .  S
O133        H137   0.992       .  S
O135        H136   0.992       .  S
C138        C139   1.396       .  A
C138        C143   1.403       .  A
C139        C140   1.398       .  A
C139        H144   1.084       .  S
C140        C141   1.418       .  A
C140        O145   1.369       .  S
C141        C142   1.412       .  A
C142        C143   1.402       .  A
C142        H146   1.083       .  S
C143        O147   1.371       .  S
O145        H149   0.992       .  S
O147        H148   0.992       .  S
C150        C151   1.398       .  A
C150        C155   1.402       .  A
C151        C152   1.404       .  A
C151        H156   1.084       .  S
C152        C153   1.423       .  A
C152        O157   1.369       .  S
C153        C154   1.405       .  A
C154        C155   1.392       .  A
C154        H158   1.073       .  S
C155        O159   1.372       .  S
O157        H161   0.991       .  S
O159        H160   0.992       .  S
N162        N163   1.320       .  A
N162        N168   1.315       .  A
N162       Mn191   2.208       .  S
N163        C170   1.355       .  A
N164        N166   1.316       .  A
N164        N165   1.322       .  A
N164       Mn180   2.207       .  S
N165        C171   1.353       .  A
N166        N167   1.320       .  A
N166       Mn191   2.199       .  S
N167        C171   1.351       .  A
N168        N169   1.321       .  A
N168       Mn180   2.205       .  S
N169        C170   1.354       .  A
C170        C287   1.487       .  S
C171        C254   1.468       .  S
N172        N178   1.315       .  A
N172        N173   1.319       .  A
N172       Mn202   2.196       .  S
N173        C181   1.352       .  A
N174        N175   1.322       .  A
N174        N176   1.315       .  A
N174       Mn180   2.205       .  S
N175        C182   1.354       .  A
N176        N177   1.317       .  A
N176       Mn202   2.185       .  S
N177        C182   1.350       .  A
N178        N179   1.321       .  A
N178       Mn180   2.211       .  S
N179        C181   1.356       .  A
Mn180      Cl204   2.552       .  S
C181        C278   1.484       .  S
C182        C311   1.471       .  S
N183        N184   1.321       .  A
N183        N189   1.317       .  A
N183       Mn191   2.212       .  S
N184        C192   1.353       .  A
N185        N187   1.315       .  A
N185        N186   1.321       .  A
N185       Mn203   2.199       .  S
N186        C193   1.353       .  A
N187        N188   1.318       .  A
N187       Mn191   2.197       .  S
N188        C193   1.352       .  A
N189        N190   1.320       .  A
N189       Mn203   2.194       .  S
N190        C192   1.350       .  A
Mn191      Cl204   2.537       .  S
C192        C227   1.466       .  S
C193        C266   1.473       .  S
N194        N195   1.320       .  A
N194        N200   1.316       .  A
N194       Mn202   2.200       .  S
N195        C205   1.351       .  A
N196        N197   1.321       .  A
N196        N198   1.314       .  A
N196       Mn203   2.198       .  S
N197        C206   1.354       .  A
N198        N199   1.317       .  A
N198       Mn202   2.191       .  S
N199        C206   1.352       .  A
N200        N201   1.321       .  A
N200       Mn203   2.206       .  S
N201        C205   1.353       .  A
Mn202      Cl204   2.537       .  S
Mn203      Cl204   2.556       .  S
C205        C299   1.469       .  S
C206        C239   1.476       .  S
C207        C230   1.530       .  S
C207        C534   1.551       .  S
C208        C242   1.532       .  S
C208        C212   1.550       .  S
C209        C251   1.533       .  S
C209        C533   1.544       .  S
C210        C275   1.533       .  S
C210        C211   1.543       .  S
C211        C531   1.544   1_545  S
C211        C856   1.378   1_455  D
C212        C529   1.551   1_545  S
C212        C855   1.378       .  D
C213        C263   1.536       .  S
C213        C215   1.524       .  S
C213        C540   1.534       .  S
C213        C225   1.497       .  S
C214        C290   1.545       .  S
C214        C216   1.511       .  S
C214        C541   1.560       .  S
C214        C221   1.501       .  S
C215        C860   1.333       .  D
C216        C859   1.333   1_455  D
C217        C314   1.537       .  S
C217        C219   1.549   1_545  S
C217        C220   1.508       .  S
C217        C223   1.509       .  S
C218        C535   1.534       .  S
C218        C224   1.543   1_565  S
C218        C863   1.388       .  D
C219        C536   1.560       .  S
C219        C862   1.388   1_455  D
C220        C543   1.322   1_545  D
C221        C542   1.322       .  D
C222        C224   1.504       .  S
C222        C867   1.327       .  D
C223        C866   1.327   1_455  D
C224        C302   1.530       .  S
C224        C226   1.509       .  S
C225        C548   1.311       .  D
C226        C547   1.311   1_545  D
C227        C228   1.397       .  A
C227        C232   1.401       .  A
C228        C229   1.405       .  A
C228        H233   1.084       .  S
C229        C230   1.416       .  A
C229        O234   1.372       .  S
C230        C231   1.412       .  A
C231        C232   1.398       .  A
C231        H235   1.080       .  S
C232        O236   1.372       .  S
O234        H238   0.991       .  S
O236        H237   0.992       .  S
C239        C240   1.398       .  A
C239        C244   1.405       .  A
C240        C241   1.400       .  A
C240        H245   1.084       .  S
C241        C242   1.415       .  A
C241        O246   1.372       .  S
C242        C243   1.409       .  A
C243        C244   1.400       .  A
C243        H247   1.077       .  S
C244        O248   1.372       .  S
O246        H250   0.992   1_545  S
O248        H249   0.992       .  S
C251        C252   1.412       .  A
C251        C256   1.418       .  A
C252        C253   1.398       .  A
C252        H257   1.081       .  S
C253        C254   1.401       .  A
C253        O258   1.372       .  S
C254        C255   1.397       .  A
C255        C256   1.402       .  A
C255        H259   1.084       .  S
C256        O260   1.369       .  S
O258        H262   0.992       .  S
O260        H261   0.992       .  S
C263        C264   1.402       .  A
C263        C268   1.427       .  A
C264        C265   1.398       .  A
C264        H269   1.070       .  S
C265        C266   1.403       .  A
C265        O270   1.371       .  S
C266        C267   1.397       .  A
C267        C268   1.400       .  A
C267        H271   1.084       .  S
C268        O272   1.374       .  S
O270        H274   0.992       .  S
O272        H273   0.991       .  S
C275        C276   1.408       .  A
C275        C280   1.415       .  A
C276        C277   1.400       .  A
C276        H281   1.081       .  S
C277        C278   1.410       .  A
C277        O282   1.371       .  S
C278        C279   1.400       .  A
C279        C280   1.403       .  A
C279        H283   1.084       .  S
C280        O284   1.367       .  S
O282        H286   0.992       .  S
O284        H285   0.992       .  S
C287        C288   1.402       .  A
C287        C292   1.409       .  A
C288        C289   1.400       .  A
C288        H293   1.083       .  S
C289        C290   1.421       .  A
C289        O294   1.371       .  S
C290        C291   1.409       .  A
C291        C292   1.402       .  A
C291        H295   1.082       .  S
C292        O296   1.371       .  S
O294        H298   0.992       .  S
O296        H297   0.992       .  S
C299        C300   1.396       .  A
C299        C304   1.403       .  A
C300        C301   1.398       .  A
C300        H305   1.084       .  S
C301        C302   1.418       .  A
C301        O306   1.369       .  S
C302        C303   1.412       .  A
C303        C304   1.402       .  A
C303        H307   1.083       .  S
C304        O308   1.371       .  S
O306        H310   0.992       .  S
O308        H309   0.992       .  S
C311        C312   1.398       .  A
C311        C316   1.402       .  A
C312        C313   1.404       .  A
C312        H317   1.084       .  S
C313        C314   1.423       .  A
C313        O318   1.369       .  S
C314        C315   1.405       .  A
C315        C316   1.392       .  A
C315        H319   1.073       .  S
C316        O320   1.372       .  S
O318        H322   0.991       .  S
O320        H321   0.992       .  S
N323        N324   1.320       .  A
N323        N329   1.315       .  A
N323       Mn352   2.208       .  S
N324        C331   1.355       .  A
N325        N327   1.316       .  A
N325        N326   1.322       .  A
N325       Mn341   2.207       .  S
N326        C332   1.353       .  A
N327        N328   1.320       .  A
N327       Mn352   2.199       .  S
N328        C332   1.351       .  A
N329        N330   1.321       .  A
N329       Mn341   2.205       .  S
N330        C331   1.354       .  A
C331        C448   1.487       .  S
C332        C415   1.468       .  S
N333        N339   1.315       .  A
N333        N334   1.319       .  A
N333       Mn363   2.196       .  S
N334        C342   1.352       .  A
N335        N336   1.322       .  A
N335        N337   1.315       .  A
N335       Mn341   2.205       .  S
N336        C343   1.354       .  A
N337        N338   1.317       .  A
N337       Mn363   2.185       .  S
N338        C343   1.350       .  A
N339        N340   1.321       .  A
N339       Mn341   2.211       .  S
N340        C342   1.356       .  A
Mn341      Cl365   2.552       .  S
C342        C439   1.484       .  S
C343        C472   1.471       .  S
N344        N345   1.321       .  A
N344        N350   1.317       .  A
N344       Mn352   2.212       .  S
N345        C353   1.353       .  A
N346        N348   1.315       .  A
N346        N347   1.321       .  A
N346       Mn364   2.199       .  S
N347        C354   1.353       .  A
N348        N349   1.318       .  A
N348       Mn352   2.197       .  S
N349        C354   1.352       .  A
N350        N351   1.320       .  A
N350       Mn364   2.194       .  S
N351        C353   1.350       .  A
Mn352      Cl365   2.537       .  S
C353        C388   1.466       .  S
C354        C427   1.473       .  S
N355        N356   1.320       .  A
N355        N361   1.316       .  A
N355       Mn363   2.200       .  S
N356        C366   1.351       .  A
N357        N358   1.321       .  A
N357        N359   1.314       .  A
N357       Mn364   2.198       .  S
N358        C367   1.354       .  A
N359        N360   1.317       .  A
N359       Mn363   2.191       .  S
N360        C367   1.352       .  A
N361        N362   1.321       .  A
N361       Mn364   2.206       .  S
N362        C366   1.353       .  A
Mn363      Cl365   2.537       .  S
Mn364      Cl365   2.556       .  S
C366        C460   1.469       .  S
C367        C400   1.476       .  S
C368        C391   1.530       .  S
C368        C537   1.510       .  S
C368        C547   1.498       .  S
C369        C403   1.532       .  S
C369        C373   1.550       .  S
C369        C544   1.513       .  S
C369        C548   1.489       .  S
C370        C412   1.533       .  S
C370        C538   1.516       .  S
C370        C543   1.498       .  S
C371        C436   1.533       .  S
C371        C372   1.543       .  S
C371        C542   1.503       .  S
C371        C545   1.507       .  S
C372       C1017   1.378   1_455  D
C373       C1016   1.378       .  D
C374        C424   1.536       .  S
C374        C376   1.524       .  S
C374        C386   1.497       .  S
C375        C451   1.545       .  S
C375        C377   1.511       .  S
C375        C382   1.501       .  S
C376        C529   1.510   1_554  S
C376       C1021   1.333       .  D
C377        C531   1.516   1_554  S
C377       C1020   1.333   1_455  D
C378        C475   1.537       .  S
C378        C380   1.549       .  S
C378        C381   1.508       .  S
C378        C384   1.509       .  S
C379        C385   1.543       .  S
C379       C1024   1.388       .  D
C380       C1023   1.388   1_455  D
C381        C532   1.503   1_554  S
C382        C531   1.498   1_554  S
C383        C530   1.513   1_554  S
C383        C385   1.504       .  S
C383       C1028   1.327       .  D
C384        C532   1.507   1_554  S
C384       C1027   1.327   1_455  D
C385        C463   1.530       .  S
C385        C387   1.509       .  S
C386        C529   1.498   1_554  S
C387        C530   1.489   1_554  S
C388        C389   1.397       .  A
C388        C393   1.401       .  A
C389        C390   1.405       .  A
C389        H394   1.084       .  S
C390        C391   1.416       .  A
C390        O395   1.372       .  S
C391        C392   1.412       .  A
C392        C393   1.398       .  A
C392        H396   1.080       .  S
C393        O397   1.372       .  S
O395        H399   0.991       .  S
O397        H398   0.992       .  S
C400        C401   1.398       .  A
C400        C405   1.405       .  A
C401        C402   1.400       .  A
C401        H406   1.084       .  S
C402        C403   1.415       .  A
C402        O407   1.372       .  S
C403        C404   1.409       .  A
C404        C405   1.400       .  A
C404        H408   1.077       .  S
C405        O409   1.372       .  S
O407        H411   0.992       .  S
O409        H410   0.992       .  S
C412        C413   1.412       .  A
C412        C417   1.418       .  A
C413        C414   1.398       .  A
C413        H418   1.081       .  S
C414        C415   1.401       .  A
C414        O419   1.372       .  S
C415        C416   1.397       .  A
C416        C417   1.402       .  A
C416        H420   1.084       .  S
C417        O421   1.369       .  S
O419        H423   0.992       .  S
O421        H422   0.992       .  S
C424        C425   1.402       .  A
C424        C429   1.427       .  A
C425        C426   1.398       .  A
C425        H430   1.070       .  S
C426        C427   1.403       .  A
C426        O431   1.371       .  S
C427        C428   1.397       .  A
C428        C429   1.400       .  A
C428        H432   1.084       .  S
C429        O433   1.374       .  S
O431        H435   0.992       .  S
O433        H434   0.991       .  S
C436        C437   1.408       .  A
C436        C441   1.415       .  A
C437        C438   1.400       .  A
C437        H442   1.081       .  S
C438        C439   1.410       .  A
C438        O443   1.371       .  S
C439        C440   1.400       .  A
C440        C441   1.403       .  A
C440        H444   1.084       .  S
C441        O445   1.367       .  S
O443        H447   0.992       .  S
O445        H446   0.992       .  S
C448        C449   1.402       .  A
C448        C453   1.409       .  A
C449        C450   1.400       .  A
C449        H454   1.083       .  S
C450        C451   1.421       .  A
C450        O455   1.371       .  S
C451        C452   1.409       .  A
C452        C453   1.402       .  A
C452        H456   1.082       .  S
C453        O457   1.371       .  S
O455        H459   0.992       .  S
O457        H458   0.992       .  S
C460        C461   1.396       .  A
C460        C465   1.403       .  A
C461        C462   1.398       .  A
C461        H466   1.084       .  S
C462        C463   1.418       .  A
C462        O467   1.369       .  S
C463        C464   1.412       .  A
C464        C465   1.402       .  A
C464        H468   1.083       .  S
C465        O469   1.371       .  S
O467        H471   0.992       .  S
O469        H470   0.992       .  S
C472        C473   1.398       .  A
C472        C477   1.402       .  A
C473        C474   1.404       .  A
C473        H478   1.084       .  S
C474        C475   1.423       .  A
C474        O479   1.369       .  S
C475        C476   1.405       .  A
C476        C477   1.392       .  A
C476        H480   1.073       .  S
C477        O481   1.372       .  S
O479        H483   0.991       .  S
O481        H482   0.992       .  S
N484        N485   1.320       .  A
N484        N490   1.315       .  A
N484       Mn513   2.208       .  S
N485        C492   1.355       .  A
N486        N488   1.316       .  A
N486        N487   1.322       .  A
N486       Mn502   2.207       .  S
N487        C493   1.353       .  A
N488        N489   1.320       .  A
N488       Mn513   2.199       .  S
N489        C493   1.351       .  A
N490        N491   1.321       .  A
N490       Mn502   2.205       .  S
N491        C492   1.354       .  A
C492        C609   1.487       .  S
C493        C576   1.468       .  S
N494        N500   1.315       .  A
N494        N495   1.319       .  A
N494       Mn524   2.196       .  S
N495        C503   1.352       .  A
N496        N497   1.322       .  A
N496        N498   1.315       .  A
N496       Mn502   2.205       .  S
N497        C504   1.354       .  A
N498        N499   1.317       .  A
N498       Mn524   2.185       .  S
N499        C504   1.350       .  A
N500        N501   1.321       .  A
N500       Mn502   2.211       .  S
N501        C503   1.356       .  A
Mn502      Cl526   2.552       .  S
C503        C600   1.484       .  S
C504        C633   1.471       .  S
N505        N506   1.321       .  A
N505        N511   1.317       .  A
N505       Mn513   2.212       .  S
N506        C514   1.353       .  A
N507        N509   1.315       .  A
N507        N508   1.321       .  A
N507       Mn525   2.199       .  S
N508        C515   1.353       .  A
N509        N510   1.318       .  A
N509       Mn513   2.197       .  S
N510        C515   1.352       .  A
N511        N512   1.320       .  A
N511       Mn525   2.194       .  S
N512        C514   1.350       .  A
Mn513      Cl526   2.537       .  S
C514        C549   1.466       .  S
C515        C588   1.473       .  S
N516        N517   1.320       .  A
N516        N522   1.316       .  A
N516       Mn524   2.200       .  S
N517        C527   1.351       .  A
N518        N519   1.321       .  A
N518        N520   1.314       .  A
N518       Mn525   2.198       .  S
N519        C528   1.354       .  A
N520        N521   1.317       .  A
N520       Mn524   2.191       .  S
N521        C528   1.352       .  A
N522        N523   1.321       .  A
N522       Mn525   2.206       .  S
N523        C527   1.353       .  A
Mn524      Cl526   2.537       .  S
Mn525      Cl526   2.556       .  S
C527        C621   1.469       .  S
C528        C561   1.476       .  S
C529        C552   1.530       .  S
C530        C564   1.532       .  S
C530        C534   1.550       .  S
C531        C573   1.533       .  S
C532        C597   1.533       .  S
C532        C533   1.543       .  S
C533       C1178   1.378   1_455  D
C534       C1177   1.378       .  D
C535        C585   1.536       .  S
C535        C537   1.524       .  S
C535        C547   1.497       .  S
C536        C612   1.545       .  S
C536        C538   1.511       .  S
C536        C543   1.501       .  S
C537       C1182   1.333       .  D
C538       C1181   1.333   1_455  D
C539        C636   1.537       .  S
C539        C541   1.549       .  S
C539        C542   1.508       .  S
C539        C545   1.509       .  S
C540        C546   1.543       .  S
C540       C1185   1.388       .  D
C541       C1184   1.388   1_455  D
C544        C546   1.504       .  S
C544       C1189   1.327       .  D
C545       C1188   1.327   1_455  D
C546        C624   1.530       .  S
C546        C548   1.509       .  S
C549        C550   1.397       .  A
C549        C554   1.401       .  A
C550        C551   1.405       .  A
C550        H555   1.084       .  S
C551        C552   1.416       .  A
C551        O556   1.372       .  S
C552        C553   1.412       .  A
C553        C554   1.398       .  A
C553        H557   1.080       .  S
C554        O558   1.372       .  S
O556        H560   0.991       .  S
O558        H559   0.992       .  S
C561        C562   1.398       .  A
C561        C566   1.405       .  A
C562        C563   1.400       .  A
C562        H567   1.084       .  S
C563        C564   1.415       .  A
C563        O568   1.372       .  S
C564        C565   1.409       .  A
C565        C566   1.400       .  A
C565        H569   1.077       .  S
C566        O570   1.372       .  S
O568        H572   0.992       .  S
O570        H571   0.992       .  S
C573        C574   1.412       .  A
C573        C578   1.418       .  A
C574        C575   1.398       .  A
C574        H579   1.081       .  S
C575        C576   1.401       .  A
C575        O580   1.372       .  S
C576        C577   1.397       .  A
C577        C578   1.402       .  A
C577        H581   1.084       .  S
C578        O582   1.369       .  S
O580        H584   0.992       .  S
O582        H583   0.992       .  S
C585        C586   1.402       .  A
C585        C590   1.427       .  A
C586        C587   1.398       .  A
C586        H591   1.070       .  S
C587        C588   1.403       .  A
C587        O592   1.371       .  S
C588        C589   1.397       .  A
C589        C590   1.400       .  A
C589        H593   1.084       .  S
C590        O594   1.374       .  S
O592        H596   0.992       .  S
O594        H595   0.991       .  S
C597        C598   1.408       .  A
C597        C602   1.415       .  A
C598        C599   1.400       .  A
C598        H603   1.081       .  S
C599        C600   1.410       .  A
C599        O604   1.371       .  S
C600        C601   1.400       .  A
C601        C602   1.403       .  A
C601        H605   1.084       .  S
C602        O606   1.367       .  S
O604        H608   0.992       .  S
O606        H607   0.992       .  S
C609        C610   1.402       .  A
C609        C614   1.409       .  A
C610        C611   1.400       .  A
C610        H615   1.083       .  S
C611        C612   1.421       .  A
C611        O616   1.371       .  S
C612        C613   1.409       .  A
C613        C614   1.402       .  A
C613        H617   1.082       .  S
C614        O618   1.371       .  S
O616        H620   0.992       .  S
O618        H619   0.992       .  S
C621        C622   1.396       .  A
C621        C626   1.403       .  A
C622        C623   1.398       .  A
C622        H627   1.084       .  S
C623        C624   1.418       .  A
C623        O628   1.369       .  S
C624        C625   1.412       .  A
C625        C626   1.402       .  A
C625        H629   1.083       .  S
C626        O630   1.371       .  S
O628        H632   0.992       .  S
O630        H631   0.992       .  S
C633        C634   1.398       .  A
C633        C638   1.402       .  A
C634        C635   1.404       .  A
C634        H639   1.084       .  S
C635        C636   1.423       .  A
C635        O640   1.369       .  S
C636        C637   1.405       .  A
C637        C638   1.392       .  A
C637        H641   1.073       .  S
C638        O642   1.372       .  S
O640        H644   0.991       .  S
O642        H643   0.992       .  S
N645        N646   1.320       .  A
N645        N651   1.315       .  A
N645       Mn674   2.208       .  S
N646        C653   1.355       .  A
N647        N649   1.316       .  A
N647        N648   1.322       .  A
N647       Mn663   2.207       .  S
N648        C654   1.353       .  A
N649        N650   1.320       .  A
N649       Mn674   2.199       .  S
N650        C654   1.351       .  A
N651        N652   1.321       .  A
N651       Mn663   2.205       .  S
N652        C653   1.354       .  A
C653        C770   1.487       .  S
C654        C737   1.468       .  S
N655        N661   1.315       .  A
N655        N656   1.319       .  A
N655       Mn685   2.196       .  S
N656        C664   1.352       .  A
N657        N658   1.322       .  A
N657        N659   1.315       .  A
N657       Mn663   2.205       .  S
N658        C665   1.354       .  A
N659        N660   1.317       .  A
N659       Mn685   2.185       .  S
N660        C665   1.350       .  A
N661        N662   1.321       .  A
N661       Mn663   2.211       .  S
N662        C664   1.356       .  A
Mn663      Cl687   2.552       .  S
C664        C761   1.484       .  S
C665        C794   1.471       .  S
N666        N667   1.321       .  A
N666        N672   1.317       .  A
N666       Mn674   2.212       .  S
N667        C675   1.353       .  A
N668        N670   1.315       .  A
N668        N669   1.321       .  A
N668       Mn686   2.199       .  S
N669        C676   1.353       .  A
N670        N671   1.318       .  A
N670       Mn674   2.197       .  S
N671        C676   1.352       .  A
N672        N673   1.320       .  A
N672       Mn686   2.194       .  S
N673        C675   1.350       .  A
Mn674      Cl687   2.537       .  S
C675        C710   1.466       .  S
C676        C749   1.473       .  S
N677        N678   1.320       .  A
N677        N683   1.316       .  A
N677       Mn685   2.200       .  S
N678        C688   1.351       .  A
N679        N680   1.321       .  A
N679        N681   1.314       .  A
N679       Mn686   2.198       .  S
N680        C689   1.354       .  A
N681        N682   1.317       .  A
N681       Mn685   2.191       .  S
N682        C689   1.352       .  A
N683        N684   1.321       .  A
N683       Mn686   2.206       .  S
N684        C688   1.353       .  A
Mn685      Cl687   2.537       .  S
Mn686      Cl687   2.556       .  S
C688        C782   1.469       .  S
C689        C722   1.476       .  S
C690        C713   1.530       .  S
C690       C1017   1.551       .  S
C690        C859   1.510       .  S
C690        C869   1.498       .  S
C691        C725   1.532       .  S
C691        C695   1.550       .  S
C691        C866   1.513       .  S
C691        C870   1.489       .  S
C692        C734   1.533       .  S
C692       C1016   1.544       .  S
C692        C860   1.516       .  S
C692        C865   1.498       .  S
C693        C758   1.533       .  S
C693        C694   1.543       .  S
C693        C864   1.503       .  S
C693        C867   1.507       .  S
C694       C1014   1.544   1_545  S
C695       C1012   1.551   1_545  S
C696        C746   1.536       .  S
C696        C698   1.524       .  S
C696       C1023   1.534       .  S
C696        C708   1.497       .  S
C697        C773   1.545       .  S
C697        C699   1.511       .  S
C697       C1024   1.560       .  S
C697        C704   1.501       .  S
C698        C851   1.510   1_554  S
C699        C853   1.516   1_554  S
C700        C797   1.537       .  S
C700        C702   1.549   1_545  S
C700        C703   1.508       .  S
C700        C706   1.509       .  S
C701       C1018   1.534       .  S
C701        C707   1.543   1_565  S
C702       C1019   1.560       .  S
C703        C854   1.503   1_554  S
C703       C1026   1.322   1_545  D
C704        C853   1.498   1_554  S
C704       C1025   1.322       .  D
C705        C852   1.513   1_554  S
C705        C707   1.504       .  S
C706        C854   1.507   1_554  S
C707        C785   1.530       .  S
C707        C709   1.509       .  S
C708        C851   1.498   1_554  S
C708       C1031   1.311       .  D
C709        C852   1.489   1_554  S
C709       C1030   1.311   1_545  D
C710        C711   1.397       .  A
C710        C715   1.401       .  A
C711        C712   1.405       .  A
C711        H716   1.084       .  S
C712        C713   1.416       .  A
C712        O717   1.372       .  S
C713        C714   1.412       .  A
C714        C715   1.398       .  A
C714        H718   1.080       .  S
C715        O719   1.372       .  S
O717        H721   0.991       .  S
O719        H720   0.992       .  S
C722        C723   1.398       .  A
C722        C727   1.405       .  A
C723        C724   1.400       .  A
C723        H728   1.084       .  S
C724        C725   1.415       .  A
C724        O729   1.372       .  S
C725        C726   1.409       .  A
C726        C727   1.400       .  A
C726        H730   1.077       .  S
C727        O731   1.372       .  S
O729        H733   0.992   1_545  S
O731        H732   0.992       .  S
C734        C735   1.412       .  A
C734        C739   1.418       .  A
C735        C736   1.398       .  A
C735        H740   1.081       .  S
C736        C737   1.401       .  A
C736        O741   1.372       .  S
C737        C738   1.397       .  A
C738        C739   1.402       .  A
C738        H742   1.084       .  S
C739        O743   1.369       .  S
O741        H745   0.992       .  S
O743        H744   0.992       .  S
C746        C747   1.402       .  A
C746        C751   1.427       .  A
C747        C748   1.398       .  A
C747        H752   1.070       .  S
C748        C749   1.403       .  A
C748        O753   1.371       .  S
C749        C750   1.397       .  A
C750        C751   1.400       .  A
C750        H754   1.084       .  S
C751        O755   1.374       .  S
O753        H757   0.992       .  S
O755        H756   0.991       .  S
C758        C759   1.408       .  A
C758        C763   1.415       .  A
C759        C760   1.400       .  A
C759        H764   1.081       .  S
C760        C761   1.410       .  A
C760        O765   1.371       .  S
C761        C762   1.400       .  A
C762        C763   1.403       .  A
C762        H766   1.084       .  S
C763        O767   1.367       .  S
O765        H769   0.992       .  S
O767        H768   0.992       .  S
C770        C771   1.402       .  A
C770        C775   1.409       .  A
C771        C772   1.400       .  A
C771        H776   1.083       .  S
C772        C773   1.421       .  A
C772        O777   1.371       .  S
C773        C774   1.409       .  A
C774        C775   1.402       .  A
C774        H778   1.082       .  S
C775        O779   1.371       .  S
O777        H781   0.992       .  S
O779        H780   0.992       .  S
C782        C783   1.396       .  A
C782        C787   1.403       .  A
C783        C784   1.398       .  A
C783        H788   1.084       .  S
C784        C785   1.418       .  A
C784        O789   1.369       .  S
C785        C786   1.412       .  A
C786        C787   1.402       .  A
C786        H790   1.083       .  S
C787        O791   1.371       .  S
O789        H793   0.992       .  S
O791        H792   0.992       .  S
C794        C795   1.398       .  A
C794        C799   1.402       .  A
C795        C796   1.404       .  A
C795        H800   1.084       .  S
C796        C797   1.423       .  A
C796        O801   1.369       .  S
C797        C798   1.405       .  A
C798        C799   1.392       .  A
C798        H802   1.073       .  S
C799        O803   1.372       .  S
O801        H805   0.991       .  S
O803        H804   0.992       .  S
N806        N807   1.320       .  A
N806        N812   1.315       .  A
N806       Mn835   2.208       .  S
N807        C814   1.355       .  A
N808        N810   1.316       .  A
N808        N809   1.322       .  A
N808       Mn824   2.207       .  S
N809        C815   1.353       .  A
N810        N811   1.320       .  A
N810       Mn835   2.199       .  S
N811        C815   1.351       .  A
N812        N813   1.321       .  A
N812       Mn824   2.205       .  S
N813        C814   1.354       .  A
C814        C931   1.487       .  S
C815        C898   1.468       .  S
N816        N822   1.315       .  A
N816        N817   1.319       .  A
N816       Mn846   2.196       .  S
N817        C825   1.352       .  A
N818        N819   1.322       .  A
N818        N820   1.315       .  A
N818       Mn824   2.205       .  S
N819        C826   1.354       .  A
N820        N821   1.317       .  A
N820       Mn846   2.185       .  S
N821        C826   1.350       .  A
N822        N823   1.321       .  A
N822       Mn824   2.211       .  S
N823        C825   1.356       .  A
Mn824      Cl848   2.552       .  S
C825        C922   1.484       .  S
C826        C955   1.471       .  S
N827        N828   1.321       .  A
N827        N833   1.317       .  A
N827       Mn835   2.212       .  S
N828        C836   1.353       .  A
N829        N831   1.315       .  A
N829        N830   1.321       .  A
N829       Mn847   2.199       .  S
N830        C837   1.353       .  A
N831        N832   1.318       .  A
N831       Mn835   2.197       .  S
N832        C837   1.352       .  A
N833        N834   1.320       .  A
N833       Mn847   2.194       .  S
N834        C836   1.350       .  A
Mn835      Cl848   2.537       .  S
C836        C871   1.466       .  S
C837        C910   1.473       .  S
N838        N839   1.320       .  A
N838        N844   1.316       .  A
N838       Mn846   2.200       .  S
N839        C849   1.351       .  A
N840        N841   1.321       .  A
N840        N842   1.314       .  A
N840       Mn847   2.198       .  S
N841        C850   1.354       .  A
N842        N843   1.317       .  A
N842       Mn846   2.191       .  S
N843        C850   1.352       .  A
N844        N845   1.321       .  A
N844       Mn847   2.206       .  S
N845        C849   1.353       .  A
Mn846      Cl848   2.537       .  S
Mn847      Cl848   2.556       .  S
C849        C943   1.469       .  S
C850        C883   1.476       .  S
C851        C874   1.530       .  S
C851       C1178   1.551       .  S
C852        C886   1.532       .  S
C852        C856   1.550       .  S
C853        C895   1.533       .  S
C853       C1177   1.544       .  S
C854        C919   1.533       .  S
C854        C855   1.543       .  S
C855       C1175   1.544   1_545  S
C856       C1173   1.551   1_545  S
C857        C907   1.536       .  S
C857        C859   1.524       .  S
C857       C1184   1.534       .  S
C857        C869   1.497       .  S
C858        C934   1.545       .  S
C858        C860   1.511       .  S
C858       C1185   1.560       .  S
C858        C865   1.501       .  S
C861        C958   1.537       .  S
C861        C863   1.549   1_545  S
C861        C864   1.508       .  S
C861        C867   1.509       .  S
C862       C1179   1.534       .  S
C862        C868   1.543   1_565  S
C863       C1180   1.560       .  S
C864       C1187   1.322   1_545  D
C865       C1186   1.322       .  D
C866        C868   1.504       .  S
C868        C946   1.530       .  S
C868        C870   1.509       .  S
C869       C1192   1.311       .  D
C870       C1191   1.311   1_545  D
C871        C872   1.397       .  A
C871        C876   1.401       .  A
C872        C873   1.405       .  A
C872        H877   1.084       .  S
C873        C874   1.416       .  A
C873        O878   1.372       .  S
C874        C875   1.412       .  A
C875        C876   1.398       .  A
C875        H879   1.080       .  S
C876        O880   1.372       .  S
O878        H882   0.991       .  S
O880        H881   0.992       .  S
C883        C884   1.398       .  A
C883        C888   1.405       .  A
C884        C885   1.400       .  A
C884        H889   1.084       .  S
C885        C886   1.415       .  A
C885        O890   1.372       .  S
C886        C887   1.409       .  A
C887        C888   1.400       .  A
C887        H891   1.077       .  S
C888        O892   1.372       .  S
O890        H894   0.992   1_545  S
O892        H893   0.992       .  S
C895        C896   1.412       .  A
C895        C900   1.418       .  A
C896        C897   1.398       .  A
C896        H901   1.081       .  S
C897        C898   1.401       .  A
C897        O902   1.372       .  S
C898        C899   1.397       .  A
C899        C900   1.402       .  A
C899        H903   1.084       .  S
C900        O904   1.369       .  S
O902        H906   0.992       .  S
O904        H905   0.992       .  S
C907        C908   1.402       .  A
C907        C912   1.427       .  A
C908        C909   1.398       .  A
C908        H913   1.070       .  S
C909        C910   1.403       .  A
C909        O914   1.371       .  S
C910        C911   1.397       .  A
C911        C912   1.400       .  A
C911        H915   1.084       .  S
C912        O916   1.374       .  S
O914        H918   0.992       .  S
O916        H917   0.991       .  S
C919        C920   1.408       .  A
C919        C924   1.415       .  A
C920        C921   1.400       .  A
C920        H925   1.081       .  S
C921        C922   1.410       .  A
C921        O926   1.371       .  S
C922        C923   1.400       .  A
C923        C924   1.403       .  A
C923        H927   1.084       .  S
C924        O928   1.367       .  S
O926        H930   0.992       .  S
O928        H929   0.992       .  S
C931        C932   1.402       .  A
C931        C936   1.409       .  A
C932        C933   1.400       .  A
C932        H937   1.083       .  S
C933        C934   1.421       .  A
C933        O938   1.371       .  S
C934        C935   1.409       .  A
C935        C936   1.402       .  A
C935        H939   1.082       .  S
C936        O940   1.371       .  S
O938        H942   0.992       .  S
O940        H941   0.992       .  S
C943        C944   1.396       .  A
C943        C948   1.403       .  A
C944        C945   1.398       .  A
C944        H949   1.084       .  S
C945        C946   1.418       .  A
C945        O950   1.369       .  S
C946        C947   1.412       .  A
C947        C948   1.402       .  A
C947        H951   1.083       .  S
C948        O952   1.371       .  S
O950        H954   0.992       .  S
O952        H953   0.992       .  S
C955        C956   1.398       .  A
C955        C960   1.402       .  A
C956        C957   1.404       .  A
C956        H961   1.084       .  S
C957        C958   1.423       .  A
C957        O962   1.369       .  S
C958        C959   1.405       .  A
C959        C960   1.392       .  A
C959        H963   1.073       .  S
C960        O964   1.372       .  S
O962        H966   0.991       .  S
O964        H965   0.992       .  S
N967        N968   1.320       .  A
N967        N973   1.315       .  A
N967       Mn996   2.208       .  S
N968        C975   1.355       .  A
N969        N971   1.316       .  A
N969        N970   1.322       .  A
N969       Mn985   2.207       .  S
N970        C976   1.353       .  A
N971        N972   1.320       .  A
N971       Mn996   2.199       .  S
N972        C976   1.351       .  A
N973        N974   1.321       .  A
N973       Mn985   2.205       .  S
N974        C975   1.354       .  A
C975       C1092   1.487       .  S
C976       C1059   1.468       .  S
N977        N983   1.315       .  A
N977        N978   1.319       .  A
N977      Mn1007   2.196       .  S
N978        C986   1.352       .  A
N979        N980   1.322       .  A
N979        N981   1.315       .  A
N979       Mn985   2.205       .  S
N980        C987   1.354       .  A
N981        N982   1.317       .  A
N981      Mn1007   2.185       .  S
N982        C987   1.350       .  A
N983        N984   1.321       .  A
N983       Mn985   2.211       .  S
N984        C986   1.356       .  A
Mn985     Cl1009   2.552       .  S
C986       C1083   1.484       .  S
C987       C1116   1.471       .  S
N988        N989   1.321       .  A
N988        N994   1.317       .  A
N988       Mn996   2.212       .  S
N989        C997   1.353       .  A
N990        N992   1.315       .  A
N990        N991   1.321       .  A
N990      Mn1008   2.199       .  S
N991        C998   1.353       .  A
N992        N993   1.318       .  A
N992       Mn996   2.197       .  S
N993        C998   1.352       .  A
N994        N995   1.320       .  A
N994      Mn1008   2.194       .  S
N995        C997   1.350       .  A
Mn996     Cl1009   2.537       .  S
C997       C1032   1.466       .  S
C998       C1071   1.473       .  S
N999       N1000   1.320       .  A
N999       N1005   1.316       .  A
N999      Mn1007   2.200       .  S
N1000      C1010   1.351       .  A
N1001      N1002   1.321       .  A
N1001      N1003   1.314       .  A
N1001     Mn1008   2.198       .  S
N1002      C1011   1.354       .  A
N1003      N1004   1.317       .  A
N1003     Mn1007   2.191       .  S
N1004      C1011   1.352       .  A
N1005      N1006   1.321       .  A
N1005     Mn1008   2.206       .  S
N1006      C1010   1.353       .  A
Mn1007    Cl1009   2.537       .  S
Mn1008    Cl1009   2.556       .  S
C1010      C1104   1.469       .  S
C1011      C1044   1.476       .  S
C1012      C1035   1.530       .  S
C1012      C1181   1.510       .  S
C1012      C1191   1.498       .  S
C1013      C1047   1.532       .  S
C1013      C1017   1.550       .  S
C1013      C1188   1.513       .  S
C1013      C1192   1.489       .  S
C1014      C1056   1.533       .  S
C1014      C1182   1.516       .  S
C1014      C1187   1.498       .  S
C1015      C1080   1.533       .  S
C1015      C1016   1.543       .  S
C1015      C1186   1.503       .  S
C1015      C1189   1.507       .  S
C1018      C1068   1.536       .  S
C1018      C1020   1.524       .  S
C1018      C1030   1.497       .  S
C1019      C1095   1.545       .  S
C1019      C1021   1.511       .  S
C1019      C1026   1.501       .  S
C1020      C1173   1.510   1_554  S
C1021      C1175   1.516   1_554  S
C1022      C1119   1.537       .  S
C1022      C1024   1.549       .  S
C1022      C1025   1.508       .  S
C1022      C1028   1.509       .  S
C1023      C1029   1.543       .  S
C1025      C1176   1.503   1_554  S
C1026      C1175   1.498   1_554  S
C1027      C1174   1.513   1_554  S
C1027      C1029   1.504       .  S
C1028      C1176   1.507   1_554  S
C1029      C1107   1.530       .  S
C1029      C1031   1.509       .  S
C1030      C1173   1.498   1_554  S
C1031      C1174   1.489   1_554  S
C1032      C1033   1.397       .  A
C1032      C1037   1.401       .  A
C1033      C1034   1.405       .  A
C1033      H1038   1.084       .  S
C1034      C1035   1.416       .  A
C1034      O1039   1.372       .  S
C1035      C1036   1.412       .  A
C1036      C1037   1.398       .  A
C1036      H1040   1.080       .  S
C1037      O1041   1.372       .  S
O1039      H1043   0.991       .  S
O1041      H1042   0.992       .  S
C1044      C1045   1.398       .  A
C1044      C1049   1.405       .  A
C1045      C1046   1.400       .  A
C1045      H1050   1.084       .  S
C1046      C1047   1.415       .  A
C1046      O1051   1.372       .  S
C1047      C1048   1.409       .  A
C1048      C1049   1.400       .  A
C1048      H1052   1.077       .  S
C1049      O1053   1.372       .  S
O1051      H1055   0.992       .  S
O1053      H1054   0.992       .  S
C1056      C1057   1.412       .  A
C1056      C1061   1.418       .  A
C1057      C1058   1.398       .  A
C1057      H1062   1.081       .  S
C1058      C1059   1.401       .  A
C1058      O1063   1.372       .  S
C1059      C1060   1.397       .  A
C1060      C1061   1.402       .  A
C1060      H1064   1.084       .  S
C1061      O1065   1.369       .  S
O1063      H1067   0.992       .  S
O1065      H1066   0.992       .  S
C1068      C1069   1.402       .  A
C1068      C1073   1.427       .  A
C1069      C1070   1.398       .  A
C1069      H1074   1.070       .  S
C1070      C1071   1.403       .  A
C1070      O1075   1.371       .  S
C1071      C1072   1.397       .  A
C1072      C1073   1.400       .  A
C1072      H1076   1.084       .  S
C1073      O1077   1.374       .  S
O1075      H1079   0.992       .  S
O1077      H1078   0.991       .  S
C1080      C1081   1.408       .  A
C1080      C1085   1.415       .  A
C1081      C1082   1.400       .  A
C1081      H1086   1.081       .  S
C1082      C1083   1.410       .  A
C1082      O1087   1.371       .  S
C1083      C1084   1.400       .  A
C1084      C1085   1.403       .  A
C1084      H1088   1.084       .  S
C1085      O1089   1.367       .  S
O1087      H1091   0.992       .  S
O1089      H1090   0.992       .  S
C1092      C1093   1.402       .  A
C1092      C1097   1.409       .  A
C1093      C1094   1.400       .  A
C1093      H1098   1.083       .  S
C1094      C1095   1.421       .  A
C1094      O1099   1.371       .  S
C1095      C1096   1.409       .  A
C1096      C1097   1.402       .  A
C1096      H1100   1.082       .  S
C1097      O1101   1.371       .  S
O1099      H1103   0.992       .  S
O1101      H1102   0.992       .  S
C1104      C1105   1.396       .  A
C1104      C1109   1.403       .  A
C1105      C1106   1.398       .  A
C1105      H1110   1.084       .  S
C1106      C1107   1.418       .  A
C1106      O1111   1.369       .  S
C1107      C1108   1.412       .  A
C1108      C1109   1.402       .  A
C1108      H1112   1.083       .  S
C1109      O1113   1.371       .  S
O1111      H1115   0.992       .  S
O1113      H1114   0.992       .  S
C1116      C1117   1.398       .  A
C1116      C1121   1.402       .  A
C1117      C1118   1.404       .  A
C1117      H1122   1.084       .  S
C1118      C1119   1.423       .  A
C1118      O1123   1.369       .  S
C1119      C1120   1.405       .  A
C1120      C1121   1.392       .  A
C1120      H1124   1.073       .  S
C1121      O1125   1.372       .  S
O1123      H1127   0.991       .  S
O1125      H1126   0.992       .  S
N1128      N1129   1.320       .  A
N1128      N1134   1.315       .  A
N1128     Mn1157   2.208       .  S
N1129      C1136   1.355       .  A
N1130      N1132   1.316       .  A
N1130      N1131   1.322       .  A
N1130     Mn1146   2.207       .  S
N1131      C1137   1.353       .  A
N1132      N1133   1.320       .  A
N1132     Mn1157   2.199       .  S
N1133      C1137   1.351       .  A
N1134      N1135   1.321       .  A
N1134     Mn1146   2.205       .  S
N1135      C1136   1.354       .  A
C1136      C1253   1.487       .  S
C1137      C1220   1.468       .  S
N1138      N1144   1.315       .  A
N1138      N1139   1.319       .  A
N1138     Mn1168   2.196       .  S
N1139      C1147   1.352       .  A
N1140      N1141   1.322       .  A
N1140      N1142   1.315       .  A
N1140     Mn1146   2.205       .  S
N1141      C1148   1.354       .  A
N1142      N1143   1.317       .  A
N1142     Mn1168   2.185       .  S
N1143      C1148   1.350       .  A
N1144      N1145   1.321       .  A
N1144     Mn1146   2.211       .  S
N1145      C1147   1.356       .  A
Mn1146    Cl1170   2.552       .  S
C1147      C1244   1.484       .  S
C1148      C1277   1.471       .  S
N1149      N1150   1.321       .  A
N1149      N1155   1.317       .  A
N1149     Mn1157   2.212       .  S
N1150      C1158   1.353       .  A
N1151      N1153   1.315       .  A
N1151      N1152   1.321       .  A
N1151     Mn1169   2.199       .  S
N1152      C1159   1.353       .  A
N1153      N1154   1.318       .  A
N1153     Mn1157   2.197       .  S
N1154      C1159   1.352       .  A
N1155      N1156   1.320       .  A
N1155     Mn1169   2.194       .  S
N1156      C1158   1.350       .  A
Mn1157    Cl1170   2.537       .  S
C1158      C1193   1.466       .  S
C1159      C1232   1.473       .  S
N1160      N1161   1.320       .  A
N1160      N1166   1.316       .  A
N1160     Mn1168   2.200       .  S
N1161      C1171   1.351       .  A
N1162      N1163   1.321       .  A
N1162      N1164   1.314       .  A
N1162     Mn1169   2.198       .  S
N1163      C1172   1.354       .  A
N1164      N1165   1.317       .  A
N1164     Mn1168   2.191       .  S
N1165      C1172   1.352       .  A
N1166      N1167   1.321       .  A
N1166     Mn1169   2.206       .  S
N1167      C1171   1.353       .  A
Mn1168    Cl1170   2.537       .  S
Mn1169    Cl1170   2.556       .  S
C1171      C1265   1.469       .  S
C1172      C1205   1.476       .  S
C1173      C1196   1.530       .  S
C1174      C1208   1.532       .  S
C1174      C1178   1.550       .  S
C1175      C1217   1.533       .  S
C1176      C1241   1.533       .  S
C1176      C1177   1.543       .  S
C1179      C1229   1.536       .  S
C1179      C1181   1.524       .  S
C1179      C1191   1.497       .  S
C1180      C1256   1.545       .  S
C1180      C1182   1.511       .  S
C1180      C1187   1.501       .  S
C1183      C1280   1.537       .  S
C1183      C1185   1.549       .  S
C1183      C1186   1.508       .  S
C1183      C1189   1.509       .  S
C1184      C1190   1.543       .  S
C1188      C1190   1.504       .  S
C1190      C1268   1.530       .  S
C1190      C1192   1.509       .  S
C1193      C1194   1.397       .  A
C1193      C1198   1.401       .  A
C1194      C1195   1.405       .  A
C1194      H1199   1.084       .  S
C1195      C1196   1.416       .  A
C1195      O1200   1.372       .  S
C1196      C1197   1.412       .  A
C1197      C1198   1.398       .  A
C1197      H1201   1.080       .  S
C1198      O1202   1.372       .  S
O1200      H1204   0.991       .  S
O1202      H1203   0.992       .  S
C1205      C1206   1.398       .  A
C1205      C1210   1.405       .  A
C1206      C1207   1.400       .  A
C1206      H1211   1.084       .  S
C1207      C1208   1.415       .  A
C1207      O1212   1.372       .  S
C1208      C1209   1.409       .  A
C1209      C1210   1.400       .  A
C1209      H1213   1.077       .  S
C1210      O1214   1.372       .  S
O1212      H1216   0.992       .  S
O1214      H1215   0.992       .  S
C1217      C1218   1.412       .  A
C1217      C1222   1.418       .  A
C1218      C1219   1.398       .  A
C1218      H1223   1.081       .  S
C1219      C1220   1.401       .  A
C1219      O1224   1.372       .  S
C1220      C1221   1.397       .  A
C1221      C1222   1.402       .  A
C1221      H1225   1.084       .  S
C1222      O1226   1.369       .  S
O1224      H1228   0.992       .  S
O1226      H1227   0.992       .  S
C1229      C1230   1.402       .  A
C1229      C1234   1.427       .  A
C1230      C1231   1.398       .  A
C1230      H1235   1.070       .  S
C1231      C1232   1.403       .  A
C1231      O1236   1.371       .  S
C1232      C1233   1.397       .  A
C1233      C1234   1.400       .  A
C1233      H1237   1.084       .  S
C1234      O1238   1.374       .  S
O1236      H1240   0.992       .  S
O1238      H1239   0.991       .  S
C1241      C1242   1.408       .  A
C1241      C1246   1.415       .  A
C1242      C1243   1.400       .  A
C1242      H1247   1.081       .  S
C1243      C1244   1.410       .  A
C1243      O1248   1.371       .  S
C1244      C1245   1.400       .  A
C1245      C1246   1.403       .  A
C1245      H1249   1.084       .  S
C1246      O1250   1.367       .  S
O1248      H1252   0.992       .  S
O1250      H1251   0.992       .  S
C1253      C1254   1.402       .  A
C1253      C1258   1.409       .  A
C1254      C1255   1.400       .  A
C1254      H1259   1.083       .  S
C1255      C1256   1.421       .  A
C1255      O1260   1.371       .  S
C1256      C1257   1.409       .  A
C1257      C1258   1.402       .  A
C1257      H1261   1.082       .  S
C1258      O1262   1.371       .  S
O1260      H1264   0.992       .  S
O1262      H1263   0.992       .  S
C1265      C1266   1.396       .  A
C1265      C1270   1.403       .  A
C1266      C1267   1.398       .  A
C1266      H1271   1.084       .  S
C1267      C1268   1.418       .  A
C1267      O1272   1.369       .  S
C1268      C1269   1.412       .  A
C1269      C1270   1.402       .  A
C1269      H1273   1.083       .  S
C1270      O1274   1.371       .  S
O1272      H1276   0.992       .  S
O1274      H1275   0.992       .  S
C1277      C1278   1.398       .  A
C1277      C1282   1.402       .  A
C1278      C1279   1.404       .  A
C1278      H1283   1.084       .  S
C1279      C1280   1.423       .  A
C1279      O1284   1.369       .  S
C1280      C1281   1.405       .  A
C1281      C1282   1.392       .  A
C1281      H1285   1.073       .  S
C1282      O1286   1.372       .  S
O1284      H1288   0.991       .  S
O1286      H1287   0.992       .  S
