geometry optimzed in LAMMPS
_audit_creation_date              2020-11-30 
_audit_creation_method            'lammps2cif' 
_symmetry_space_group_name_H-M    'P1' 
_symmetry_Int_Tables_number       1 
_symmetry_cell_setting            triclinic 
loop_ 
_symmetry_equiv_pos_as_xyz 
  x,y,z 
_cell_length_a                    23.871429066399166 
_cell_length_b                    23.939781516168964 
_cell_length_c                    24.001042677789233 
_cell_angle_alpha                 91.39821958397938 
_cell_angle_beta                  91.03683826868026 
_cell_angle_gamma                 90.16748048055254 
loop_ 
_atom_site_label 
_atom_site_type_symbol 
_atom_site_fract_x 
_atom_site_fract_y 
_atom_site_fract_z 
_atom_site_charge 
C1          C  0.87138351  0.28328140  0.49573211    -0.02600
C2          C  0.88921653  0.46617449  0.32092849    -0.02600
C3          C  0.86362264  0.45439253  0.68227009    -0.02600
C4          C  0.88267791  0.64286885  0.50735021    -0.02600
O5          O  0.91703711  0.45492594  0.58928165    -0.74540
O6          O  0.92350504  0.46998100  0.42333595    -0.74570
O7          O  0.91960408  0.54341036  0.51970489    -0.74620
O8          O  0.92064780  0.37900118  0.49316156    -0.74670
O9          O  0.82876605  0.38031476  0.49505069    -0.74600
O10         O  0.83013473  0.54709849  0.50097083    -0.74580
O11         O  0.83289389  0.46410692  0.41416473    -0.74560
O12         O  0.82546839  0.46055553  0.58171626    -0.74620
Ni13       Ni  0.92315424  0.46175517  0.50637741     1.25410
Ni14       Ni  0.82608164  0.46320567  0.49792152     1.25360
C15         C  0.86948755  0.45602599  0.61421325     0.87640
C16         C  0.88070081  0.46702419  0.38960735     0.87580
C17         C  0.87654122  0.57429193  0.51009516     0.87600
C18         C  0.87444509  0.35100539  0.49312187     0.87770
C19         C  0.33520884  0.81192779  0.48976962    -0.02600
C20         C  0.52309185  0.80642277  0.31123221    -0.02600
C21         C  0.51613399  0.81541536  0.68151998    -0.02600
C22         C  0.69932169  0.80604638  0.49737131    -0.02600
O23         O  0.51976592  0.85937519  0.58024825    -0.74540
O24         O  0.52025775  0.85267097  0.41138520    -0.74570
O25         O  0.43434486  0.86019964  0.49179961    -0.74620
O26         O  0.60360695  0.85366127  0.49505475    -0.74670
O27         O  0.60138364  0.76179475  0.49538002    -0.74600
O28         O  0.43366835  0.76832267  0.49201265    -0.74580
O29         O  0.51855303  0.76159489  0.41005189    -0.74560
O30         O  0.51900237  0.76802647  0.58057292    -0.74620
Ni31       Ni  0.51955646  0.85937272  0.49487288     1.25410
Ni32       Ni  0.51774797  0.76204236  0.49483578     1.25360
C33         C  0.51988619  0.81467445  0.61040273     0.87640
C34         C  0.52066811  0.80698679  0.38127956     0.87580
C35         C  0.40477994  0.81450113  0.48954440     0.87600
C36         C  0.63115607  0.80685936  0.49395509     0.87770
C37         C  0.52089309  0.28854618  0.86004662    -0.02600
C38         C  0.34129742  0.47006221  0.84906161    -0.02600
C39         C  0.70987875  0.46109393  0.84919310    -0.02600
C40         C  0.52165653  0.65187804  0.84248257    -0.02600
O41         O  0.44050097  0.46716538  0.80310000    -0.74540
O42         O  0.61014378  0.46654924  0.80599798    -0.74570
O43         O  0.52701263  0.38332924  0.81009001    -0.74620
O44         O  0.52561209  0.55120577  0.80264944    -0.74670
O45         O  0.52879741  0.55821205  0.89435223    -0.74600
O46         O  0.52096007  0.39068949  0.90055233    -0.74580
O47         O  0.61177737  0.47111302  0.89763247    -0.74560
O48         O  0.44086848  0.47632835  0.89456783    -0.74620
Ni49       Ni  0.52575022  0.46701815  0.80257514     1.25410
Ni50       Ni  0.52588950  0.47437206  0.89971996     1.25360
C51         C  0.41132875  0.47151583  0.84828569     0.87640
C52         C  0.64032506  0.46757190  0.85165431     0.87580
C53         C  0.52276261  0.35783857  0.85708994     0.87600
C54         C  0.52668923  0.58355705  0.84723028     0.87770
C55         C  0.37267580  0.97659060  0.81290189    -0.02600
C56         C  0.36770924  0.78609819  0.99370030    -0.02600
C57         C  0.38075496  0.14726213  0.01841125    -0.02600
C58         C  0.39031799  0.97483353  0.17786746    -0.02600
O59         O  0.33976354  0.96797990  0.08038041    -0.74540
O60         O  0.33292209  0.97369509  0.91242975    -0.74570
O61         O  0.32937505  0.88633233  0.99255709    -0.74620
O62         O  0.33798228  0.05173827  0.00200708    -0.74670
O63         O  0.43024500  0.05133125  0.00379673    -0.74600
O64         O  0.42079254  0.88258708  0.98713382    -0.74580
O65         O  0.42499900  0.97431247  0.90977633    -0.74560
O66         O  0.43033980  0.96219076  0.07778246    -0.74620
Ni67       Ni  0.33222021  0.96978838  0.99658343     1.25410
Ni68       Ni  0.42971572  0.96711475  0.99413964     1.25360
C69         C  0.38652569  0.96732465  0.10845774     0.87640
C70         C  0.37778683  0.97673091  0.88210080     0.87580
C71         C  0.37348694  0.85523694  0.99001870     0.87600
C72         C  0.38409882  0.07987192  0.00739256     0.87770
C73         C  0.01450923  0.61360241  0.82842688    -0.02600
C74         C  0.83593776  0.61217907  0.99350925    -0.02600
C75         C  0.20881140  0.61535675  0.01215532    -0.02600
C76         C  0.02627127  0.61993189  0.18791863    -0.02600
O77         O  0.02005972  0.56811884  0.09182319    -0.74540
O78         O  0.02013991  0.56742978  0.92478473    -0.74570
O79         O  0.10632177  0.56921552  0.00737918    -0.74620
O80         O  0.93522169  0.56539780  0.00447101    -0.74670
O81         O  0.93651674  0.65643329  0.00702616    -0.74600
O82         O  0.10736472  0.66010258  0.00916253    -0.74580
O83         O  0.02052700  0.65878583  0.92571380    -0.74560
O84         O  0.02203283  0.66011600  0.09121332    -0.74620
Ni85       Ni  0.02070849  0.56453661  0.00743496     1.25410
Ni86       Ni  0.02155506  0.66170004  0.00848278     1.25360
C87         C  0.02074375  0.61512643  0.12013277     0.87640
C88         C  0.01896209  0.61261721  0.89652908     0.87580
C89         C  0.13711888  0.61430686  0.00765224     0.87600
C90         C  0.90616057  0.61131948  0.00285751     0.87770
C91         C  0.66961144  0.79264040  0.99650720    -0.02600
C92         C  0.65919604  0.97518425  0.82650478    -0.02600
C93         C  0.67448821  0.15458688  0.01600329    -0.02600
C94         C  0.67182524  0.97146389  0.18474194    -0.02600
O95         O  0.71666679  0.97163043  0.08835290    -0.74540
O96         O  0.71540389  0.97456689  0.92093619    -0.74570
O97         O  0.71890987  0.05705683  0.00888068    -0.74620
O98         O  0.71883761  0.88937155  0.00134761    -0.74670
O99         O  0.62664359  0.89067198  0.00186942    -0.74600
O100        O  0.62714481  0.05774328  0.01286117    -0.74580
O101        O  0.62424515  0.97952939  0.92500409    -0.74560
O102        O  0.62449546  0.97316168  0.08892941    -0.74620
Ni103      Ni  0.72067075  0.97326903  0.00498728     1.25410
Ni104      Ni  0.62278154  0.97491939  0.00690230     1.25360
C105        C  0.67068616  0.97367524  0.11709771     0.87640
C106        C  0.66766362  0.97718891  0.89427794     0.87580
C107        C  0.67325216  0.08614899  0.01235173     0.87600
C108        C  0.67255488  0.86118290  0.00026349     0.87770
C109        C  0.34891929  0.45183812  0.14492816    -0.02600
C110        C  0.51971392  0.28831507  0.15948108    -0.02600
C111        C  0.52708496  0.65091456  0.14056060    -0.02600
C112        C  0.70906887  0.46040487  0.14807262    -0.02600
O113        O  0.44403828  0.47076923  0.10343651    -0.74540
O114        O  0.61074562  0.45880137  0.10213320    -0.74570
O115        O  0.51930415  0.38103638  0.10588636    -0.74620
O116        O  0.53240375  0.54987697  0.09491963    -0.74670
O117        O  0.53195087  0.55489467  0.18637664    -0.74600
O118        O  0.52364082  0.38857653  0.19751273    -0.74580
O119        O  0.61172201  0.46861239  0.19305683    -0.74560
O120        O  0.44435385  0.47161928  0.19428021    -0.74620
Ni121      Ni  0.52677044  0.46502090  0.09853044     1.25410
Ni122      Ni  0.52817530  0.47169500  0.19568516     1.25360
C123        C  0.41557406  0.46729544  0.14831818     0.87640
C124        C  0.64018336  0.46156818  0.14830416     0.87580
C125        C  0.51810539  0.35624946  0.15346825     0.87600
C126        C  0.53255252  0.58161722  0.13957465     0.87770
C127        C  0.84885322  0.30885740  0.99590524    -0.02600
C128        C  0.01833530  0.29940765  0.80826247    -0.02600
C129        C  0.21973765  0.30056025  0.98766798    -0.02600
C130        C  0.04240544  0.31636808  0.17510024    -0.02600
O131        O  0.03892893  0.26746041  0.07710537    -0.74540
O132        O  0.02610267  0.26172935  0.90919218    -0.74570
O133        O  0.11768962  0.26136711  0.99043383    -0.74620
O134        O  0.94829251  0.26493473  0.99824366    -0.74670
O135        O  0.94938927  0.35587950  0.99135239    -0.74600
O136        O  0.12125732  0.35275833  0.99748295    -0.74580
O137        O  0.03642430  0.35249034  0.90654433    -0.74560
O138        O  0.03071205  0.35716144  0.07579224    -0.74620
Ni139      Ni  0.03278147  0.26102049  0.99360248     1.25410
Ni140      Ni  0.03483073  0.35762846  0.99239813     1.25360
C141        C  0.03522336  0.31344181  0.10591132     0.87640
C142        C  0.02854527  0.30581962  0.87815924     0.87580
C143        C  0.14934690  0.30587421  0.99407349     0.87600
C144        C  0.91922879  0.31083265  0.99642757     0.87770
C145        C  0.83649441  0.96131545  0.65264111    -0.02600
C146        C  0.02540644  0.77683884  0.67585926    -0.02600
C147        C  0.02324133  0.14289284  0.64587064    -0.02600
C148        C  0.20792000  0.96711588  0.65148001    -0.02600
O149        O  0.02854180  0.87116580  0.61909434    -0.74540
O150        O  0.01535870  0.03965558  0.60478823    -0.74570
O151        O  0.10593522  0.96570416  0.60801074    -0.74620
O152        O  0.93659483  0.94940675  0.61020049    -0.74670
O153        O  0.93822305  0.96166793  0.70053457    -0.74600
O154        O  0.10960256  0.96968783  0.69914376    -0.74580
O155        O  0.02236010  0.04840959  0.69543762    -0.74560
O156        O  0.02759592  0.88123044  0.70998653    -0.74620
Ni157      Ni  0.02151564  0.95573709  0.60770350     1.25410
Ni158      Ni  0.02433795  0.96539738  0.70418071     1.25360
C159        C  0.02908385  0.84670169  0.66744482     0.87640
C160        C  0.01989597  0.07325019  0.64796864     0.87580
C161        C  0.13740221  0.96940918  0.65250712     0.87600
C162        C  0.90738747  0.95524727  0.65523619     0.87770
C163        C  0.16874197  0.27717976  0.48745087    -0.02600
C164        C  0.18815590  0.47181925  0.31435956    -0.02600
C165        C  0.16326689  0.46067862  0.67859543    -0.02600
C166        C  0.17627287  0.64477979  0.52025076    -0.02600
O167        O  0.12471724  0.46694453  0.57658197    -0.74540
O168        O  0.13969360  0.46063449  0.41035028    -0.74570
O169        O  0.12893341  0.37893865  0.49214529    -0.74620
O170        O  0.13503447  0.54644890  0.49378269    -0.74670
O171        O  0.22489711  0.54639253  0.51099401    -0.74600
O172        O  0.22018499  0.37609048  0.49416448    -0.74580
O173        O  0.22987622  0.46769517  0.41751666    -0.74560
O174        O  0.21489898  0.45656118  0.58465875    -0.74620
Ni175      Ni  0.12935020  0.46317274  0.49284050     1.25410
Ni176      Ni  0.22573318  0.46139413  0.50188199     1.25360
C177        C  0.16773822  0.46367600  0.60981424     0.87640
C178        C  0.18639559  0.46537685  0.38425710     0.87580
C179        C  0.17330288  0.34770094  0.49254183     0.87600
C180        C  0.17911813  0.57570689  0.50694151     0.87770
C181        C  0.35000470  0.11267938  0.50282923    -0.02600
C182        C  0.54469052  0.13086607  0.31698262    -0.02600
C183        C  0.51383921  0.12490931  0.68006364    -0.02600
C184        C  0.71467061  0.11618902  0.49106138    -0.02600
O185        O  0.52443473  0.07522699  0.58211516    -0.74540
O186        O  0.53975246  0.07723779  0.41234046    -0.74570
O187        O  0.61541725  0.07468448  0.50658095    -0.74620
O188        O  0.44918094  0.07398780  0.48955217    -0.74670
O189        O  0.44682129  0.16455628  0.49961117    -0.74600
O190        O  0.61690627  0.16507498  0.49953017    -0.74580
O191        O  0.53262598  0.16873101  0.41701919    -0.74560
O192        O  0.53024194  0.16696895  0.58394464    -0.74620
Ni193      Ni  0.53226394  0.07232661  0.49742050     1.25410
Ni194      Ni  0.53176234  0.16936527  0.50029162     1.25360
C195        C  0.52404958  0.12167262  0.61187171     0.87640
C196        C  0.53868216  0.12435909  0.38568964     0.87580
C197        C  0.64563017  0.11854444  0.50139010     0.87600
C198        C  0.41877981  0.11793567  0.49629068     0.87770
C199        C  0.02716300  0.78362309  0.35588925    -0.02600
C200        C  0.83847509  0.95344955  0.34043644    -0.02600
C201        C  0.20478707  0.96308121  0.34622038    -0.02600
C202        C  0.00850243  0.14637436  0.34157984    -0.02600
O203        O  0.01888351  0.05281094  0.38535841    -0.74540
O204        O  0.01887251  0.88684119  0.39414100    -0.74570
O205        O  0.10430523  0.97163179  0.38520220    -0.74620
O206        O  0.93573245  0.97232920  0.38901986    -0.74670
O207        O  0.93636588  0.95842217  0.29830448    -0.74600
O208        O  0.10555930  0.96379313  0.29445666    -0.74580
O209        O  0.02260780  0.87798130  0.30355956    -0.74560
O210        O  0.01618740  0.04705875  0.29366642    -0.74620
Ni211      Ni  0.01993360  0.97089165  0.39119726     1.25410
Ni212      Ni  0.02012856  0.96193629  0.29431866     1.25360
C213        C  0.01474461  0.07845915  0.33892283     0.87640
C214        C  0.02116440  0.85307564  0.35147211     0.87580
C215        C  0.13459618  0.96647841  0.34064391     0.87600
C216        C  0.90705688  0.96270697  0.34346825     0.87770
C217        C  0.75611400  0.09638966  0.38666131    -0.20420
C218        C  0.72436070  0.08017541  0.43403633    -0.06980
C219        C  0.71688029  0.02173550  0.43500184     0.13890
C220        C  0.75694520  0.98659766  0.41058566    -0.20470
C221        C  0.79796851  0.00142576  0.36944012    -0.06990
C222        C  0.79277513  0.05926645  0.35580356     0.13880
C223        C  0.83631200  0.08784919  0.32312692    -0.23820
H224        H  0.75960426  0.13888000  0.37535058     0.15160
H225        H  0.75460675  0.94701843  0.42893319     0.15190
C226        C  0.66245893  0.99276679  0.45036614    -0.23770
H227        H  0.84875476  0.12551749  0.34617378     0.05400
H228        H  0.81886578  0.10122599  0.28263586     0.08630
H229        H  0.87560567  0.06388968  0.32001202     0.08630
H230        H  0.65258325  0.99059369  0.49408202     0.08610
H231        H  0.66242300  0.94850754  0.43643892     0.08610
H232        H  0.62595417  0.01119093  0.42952419     0.05390
C233        C  0.28627124  0.02582283  0.46591805    -0.20420
C234        C  0.31754501  0.07492946  0.45167486    -0.06980
C235        C  0.29495696  0.09683513  0.39952782     0.13890
C236        C  0.25349662  0.06476248  0.36659481    -0.20470
C237        C  0.22504285  0.01531539  0.38649782    -0.06990
C238        C  0.23449833  0.00863932  0.44329281     0.13880
C239        C  0.18654228  0.01076675  0.48330720    -0.23820
H240        H  0.30513865  0.99020052  0.48332687     0.15160
H241        H  0.24380159  0.07840951  0.32483791     0.15190
C242        C  0.31182409  0.15384524  0.37728946    -0.23770
H243        H  0.19098600  0.04606651  0.51331590     0.05400
H244        H  0.18595631  0.97402537  0.50908139     0.08630
H245        H  0.14562284  0.01681733  0.46243609     0.08630
H246        H  0.34748396  0.17247950  0.40118486     0.08610
H247        H  0.27864269  0.18540744  0.37788294     0.08610
H248        H  0.32107169  0.15136858  0.33223222     0.05390
C249        C  0.12308032  0.73926614  0.48769621    -0.20420
C250        C  0.14423807  0.68489807  0.47360769    -0.06980
C251        C  0.14166114  0.67599991  0.41502306     0.13890
C252        C  0.11738619  0.71650097  0.37735659    -0.20470
C253        C  0.08235852  0.76322401  0.39360492    -0.06990
C254        C  0.08753780  0.77405158  0.45227087     0.13880
C255        C  0.05331234  0.82075169  0.48124217    -0.23820
H256        H  0.12352407  0.75040030  0.53062813     0.15160
H257        H  0.11704759  0.70276992  0.33520409     0.15190
C258        C  0.15491065  0.61994587  0.39051590    -0.23770
H259        H  0.06034403  0.82017877  0.52653313     0.05400
H260        H  0.00814730  0.81940495  0.47102855     0.08630
H261        H  0.06411777  0.86394055  0.47296951     0.08630
H262        H  0.12286304  0.58954113  0.40251661     0.08610
H263        H  0.19576200  0.60290444  0.40088380     0.08610
H264        H  0.15496342  0.62334962  0.34563472     0.05390
C265        C  0.28013394  0.26681162  0.49883585    -0.20420
C266        C  0.22680451  0.24718701  0.47680069    -0.06980
C267        C  0.22641133  0.18846890  0.46642096     0.13890
C268        C  0.25983103  0.15811103  0.49973445    -0.20470
C269        C  0.31602188  0.16970450  0.50359945    -0.06990
C270        C  0.32689682  0.22895745  0.50710433     0.13880
C271        C  0.38061634  0.25315024  0.53052240    -0.23820
H272        H  0.28597349  0.30965594  0.51191306     0.15160
H273        H  0.24526450  0.11717930  0.50893658     0.15190
C274        C  0.18773274  0.15077592  0.43175678    -0.23770
H275        H  0.37421294  0.29588967  0.54825280     0.07320
H276        H  0.41140860  0.25710834  0.49682275     0.08630
H277        H  0.39674335  0.22747281  0.56520678     0.08630
H278        H  0.19778375  0.15306176  0.38839101     0.08610
H279        H  0.14421208  0.15500975  0.43946818     0.08610
H280        H  0.19096747  0.10669406  0.44046719     0.05390
C281        C  0.14200445  0.24151174  0.38211417    -0.20420
C282        C  0.12665536  0.26191244  0.43627871    -0.06980
C283        C  0.07269103  0.24599648  0.45000154     0.13890
C284        C  0.05118465  0.19436485  0.43203679    -0.20470
C285        C  0.06083103  0.17270949  0.37781333    -0.06990
C286        C  0.11058765  0.19695815  0.35296996     0.13880
C287        C  0.13520790  0.17097202  0.30024993    -0.23820
H288        H  0.18345739  0.25065994  0.36815326     0.15160
H289        H  0.02315794  0.17638970  0.46027302     0.15190
C290        C  0.03782178  0.28195337  0.48572791    -0.23770
H291        H  0.18011390  0.16081509  0.30467910     0.05400
H292        H  0.13359508  0.19992242  0.26540267     0.08630
H293        H  0.11343161  0.13154330  0.28778042     0.08630
H294        H  0.04855906  0.32624431  0.48127408     0.08610
H295        H  0.04201682  0.26762510  0.52823530     0.08610
H296        H  0.99359820  0.27890560  0.47284629     0.05390
C297        C  0.29614114  0.99407564  0.58743654    -0.20420
C298        C  0.24642704  0.01212810  0.61588776    -0.06980
C299        C  0.24503977  0.07141764  0.61936052     0.13890
C300        C  0.29056138  0.10530404  0.59861272    -0.20470
C301        C  0.33310281  0.08344438  0.56124452    -0.06990
C302        C  0.34135557  0.02622896  0.56770362     0.13880
C303        C  0.39065219  0.99407969  0.54192492    -0.23820
H304        H  0.30632730  0.95272450  0.58331193     0.15160
H305        H  0.28607633  0.15012941  0.60317321     0.15190
C306        C  0.19061646  0.09922032  0.63230869    -0.23770
H307        H  0.38904500  0.94864434  0.54971243     0.05400
H308        H  0.43124464  0.00862206  0.55865143     0.08630
H309        H  0.39192626  0.99646042  0.49607580     0.08630
H310        H  0.16942570  0.08548048  0.67002774     0.08610
H311        H  0.16189543  0.08615956  0.59841217     0.08610
H312        H  0.19494276  0.14536200  0.63406545     0.05390
C313        C  0.13150015  0.18189871  0.53377446    -0.20420
C314        C  0.14500993  0.23986856  0.54047633    -0.06980
C315        C  0.12761123  0.25778571  0.59322096     0.13890
C316        C  0.10454702  0.21946881  0.63321245    -0.20470
C317        C  0.07793752  0.16701239  0.61623538    -0.06990
C318        C  0.08985783  0.15245570  0.56047489     0.13880
C319        C  0.06831074  0.10123610  0.52925081    -0.23820
H320        H  0.16295780  0.15187820  0.52839019     0.15160
H321        H  0.09657302  0.23717532  0.67380403     0.15190
C322        C  0.12059049  0.31752793  0.60264781    -0.23770
H323        H  0.08231648  0.09962825  0.48548300     0.05400
H324        H  0.02205312  0.10157635  0.52705036     0.08630
H325        H  0.08607512  0.06299164  0.54719090     0.08630
H326        H  0.09525290  0.33640290  0.56971844     0.08610
H327        H  0.16191829  0.33846899  0.60768688     0.08610
H328        H  0.09273017  0.32103329  0.63745125     0.05390
C329        C  0.16592474  0.68180063  0.63142148    -0.20420
C330        C  0.14555906  0.65590620  0.57995920    -0.06980
C331        C  0.08858226  0.64800225  0.58434283     0.13890
C332        C  0.05691343  0.68614297  0.61559483    -0.20470
C333        C  0.07457393  0.73460147  0.64673751    -0.06990
C334        C  0.13333423  0.72637440  0.65920221     0.13880
C335        C  0.16336638  0.76415901  0.69921463    -0.23820
H336        H  0.20920204  0.67636718  0.64413844     0.15160
H337        H  0.01631178  0.67132910  0.62221746     0.15190
C338        C  0.06036525  0.59624930  0.56216903    -0.23770
H339        H  0.17693976  0.74093367  0.73649855     0.05400
H340        H  0.13562757  0.79916538  0.70889393     0.08630
H341        H  0.20030611  0.78361797  0.68197629     0.08630
H342        H  0.08024256  0.55832770  0.57784091     0.08610
H343        H  0.06348929  0.59701293  0.51723872     0.08610
H344        H  0.01556536  0.59358165  0.57303094     0.05390
C345        C  0.83407199  0.01282805  0.56408361    -0.20420
C346        C  0.82423055  0.01759436  0.62017736    -0.06980
C347        C  0.79292883  0.06658020  0.63508862     0.13890
C348        C  0.75896222  0.09534403  0.59415621    -0.20470
C349        C  0.76192988  0.08660167  0.53503194    -0.06990
C350        C  0.80854004  0.04585059  0.52294554     0.13880
C351        C  0.84603628  0.03338983  0.47410213    -0.23820
H352        H  0.86146849  0.97854925  0.55203157     0.15160
H353        H  0.72535948  0.11893950  0.61088022     0.15190
C354        C  0.78799000  0.08555945  0.69345065    -0.23770
H355        H  0.84135728  0.06006422  0.44032630     0.05400
H356        H  0.89141991  0.03815807  0.48492038     0.08630
H357        H  0.84397905  0.98898243  0.46184451     0.08630
H358        H  0.82279730  0.07046780  0.71965023     0.08610
H359        H  0.74794961  0.06854462  0.70634980     0.08610
H360        H  0.78818620  0.13193586  0.69643627     0.05390
C361        C  0.01514860  0.16011178  0.23186513    -0.20420
C362        C  0.01082004  0.18017651  0.28765534    -0.06980
C363        C  0.01769407  0.23842283  0.29503421     0.13890
C364        C  0.05109226  0.26329113  0.25923194    -0.20470
C365        C  0.04327988  0.25607187  0.20278611    -0.06990
C366        C  0.02576228  0.19872319  0.18775408     0.13880
C367        C  0.01722722  0.17495282  0.12980105    -0.23820
H368        H  0.00756680  0.11646156  0.22223727     0.15160
H369        H  0.07246232  0.29756877  0.27739692     0.15190
C370        C  0.00647926  0.27556282  0.34488957    -0.23770
H371        H  0.00521003  0.13009289  0.12978867     0.05400
H372        H  0.05708718  0.17664782  0.10682500     0.08630
H373        H  0.98183326  0.19629634  0.10874786     0.08630
H374        H  0.99314238  0.25733671  0.38231386     0.08610
H375        H  0.97203576  0.30273949  0.33255831     0.08610
H376        H  0.04455518  0.29803874  0.35897266     0.05390
C377        C  0.14407174  0.32795035  0.22652552    -0.20420
C378        C  0.09997147  0.34827227  0.18974305    -0.06980
C379        C  0.10075333  0.40641601  0.18487788     0.13890
C380        C  0.13048336  0.43801694  0.22425243    -0.20470
C381        C  0.15813858  0.42125186  0.27459971    -0.06990
C382        C  0.17046159  0.36294556  0.27029677     0.13880
C383        C  0.21419264  0.33830720  0.30759754    -0.23820
H384        H  0.15308995  0.28376746  0.22573164     0.15160
H385        H  0.13757634  0.47803926  0.20897064     0.15190
C386        C  0.07163094  0.43844139  0.13919556    -0.23770
H387        H  0.21992384  0.29324701  0.29765564     0.05400
H388        H  0.20258301  0.34465168  0.35185913     0.08630
H389        H  0.25515173  0.35809262  0.30062204     0.08630
H390        H  0.02561728  0.43227733  0.14017199     0.08610
H391        H  0.09101189  0.42722300  0.09897112     0.08610
H392        H  0.07788053  0.48418810  0.14243930     0.05390
C393        C  0.96948885  0.20440279  0.78633810    -0.20420
C394        C  0.01864911  0.23413632  0.79847899    -0.06980
C395        C  0.06685370  0.20103708  0.79053349     0.13890
C396        C  0.06859121  0.16841424  0.74115200    -0.20470
C397        C  0.01975497  0.16155032  0.70835481    -0.06990
C398        C  0.96882887  0.16827342  0.73932025     0.13880
C399        C  0.91458992  0.13930063  0.72621142    -0.23820
H400        H  0.93047167  0.21712972  0.80515969     0.15160
H401        H  0.10703352  0.14783955  0.72912622     0.15190
C402        C  0.09450648  0.17472290  0.84026231    -0.23770
H403        H  0.88543507  0.14297567  0.76170357     0.05400
H404        H  0.92236434  0.09418364  0.72001109     0.08630
H405        H  0.89259811  0.15872915  0.69097947     0.08630
H406        H  0.06662589  0.14171082  0.85614141     0.08610
H407        H  0.10311347  0.20520770  0.87467505     0.08610
H408        H  0.13448551  0.15483942  0.82813783     0.05390
C409        C  0.04061784  0.36738556  0.72257489    -0.20420
C410        C  0.06232537  0.32894561  0.76309432    -0.06980
C411        C  0.12191824  0.32036411  0.75290584     0.13890
C412        C  0.15325865  0.35599891  0.71651392    -0.20470
C413        C  0.12974758  0.40440671  0.69083791    -0.06990
C414        C  0.07077672  0.40373801  0.68819455     0.13880
C415        C  0.03787578  0.43974036  0.64812458    -0.23820
H416        H  0.99862061  0.37693233  0.71950395     0.15160
H417        H  0.19797959  0.34943236  0.71302627     0.15190
C418        C  0.15728584  0.27965393  0.78311674    -0.23770
H419        H  0.99244176  0.43637616  0.65379403     0.05400
H420        H  0.04438878  0.42454336  0.60499246     0.08630
H421        H  0.04752452  0.48447950  0.65198972     0.08630
H422        H  0.16370604  0.24141186  0.75705639     0.08610
H423        H  0.13745056  0.27136662  0.82250029     0.08610
H424        H  0.19929297  0.29713915  0.79371817     0.05390
C425        C  0.72008048  0.38706836  0.06556946    -0.20420
C426        C  0.73569491  0.40475050  0.11830801    -0.06980
C427        C  0.78204981  0.37170290  0.13841802     0.13890
C428        C  0.82492433  0.35229277  0.10107517    -0.20470
C429        C  0.81089693  0.33779257  0.04580062    -0.06990
C430        C  0.75317358  0.34916891  0.03517884     0.13880
C431        C  0.71971152  0.30749980  0.00958092    -0.23820
H432        H  0.67721107  0.39409819  0.05253903     0.15160
H433        H  0.86603500  0.34450631  0.11545067     0.15190
C434        C  0.77748022  0.34507666  0.19338741    -0.23770
H435        H  0.70678374  0.28511502  0.04626071     0.05400
H436        H  0.73833156  0.27547413  0.98495064     0.08630
H437        H  0.68934665  0.32885921  0.98270968     0.08630
H438        H  0.73924498  0.35725573  0.21563615     0.08610
H439        H  0.81169195  0.36015272  0.21817049     0.08610
H440        H  0.77813721  0.29885384  0.18861926     0.05390
C441        C  0.48321685  0.21962474  0.29311662    -0.20420
C442        C  0.53596200  0.19518985  0.30531975    -0.06980
C443        C  0.58086704  0.23258280  0.29796762     0.13890
C444        C  0.57660535  0.27237500  0.25525512    -0.20470
C445        C  0.52638381  0.27744673  0.22434607    -0.06990
C446        C  0.47922265  0.26476486  0.25703154     0.13880
C447        C  0.42687666  0.29952264  0.25681964    -0.23820
H448        H  0.44486976  0.20509126  0.30917983     0.15160
H449        H  0.60745088  0.30483780  0.25404227     0.15190
C450        C  0.62424429  0.23994257  0.34328368    -0.23770
H451        H  0.42056504  0.31742896  0.29933411     0.05400
H452        H  0.38993167  0.27339145  0.24559962     0.08630
H453        H  0.42988675  0.33503408  0.22826001     0.08630
H454        H  0.63447754  0.19895337  0.36096294     0.08610
H455        H  0.60718848  0.26696869  0.37711497     0.08610
H456        H  0.66269259  0.25988190  0.32751738     0.05390
C457        C  0.24157515  0.47780720  0.22980531    -0.20420
C458        C  0.24780026  0.47389561  0.28701708    -0.06980
C459        C  0.30410913  0.45521733  0.30173963     0.13890
C460        C  0.34275429  0.44479009  0.25654935    -0.20470
C461        C  0.32054733  0.43925647  0.20069532    -0.06990
C462        C  0.26173220  0.43625438  0.19808205     0.13880
C463        C  0.22148377  0.41677084  0.15178220    -0.23820
H464        H  0.21601293  0.50622048  0.20805265     0.15160
H465        H  0.38682507  0.43953874  0.26543066     0.15190
C466        C  0.32573837  0.44773536  0.35997974    -0.23770
H467        H  0.20175353  0.37902302  0.16441136     0.05400
H468        H  0.23546349  0.40453189  0.11192908     0.08630
H469        H  0.19021691  0.44851865  0.14016743     0.08630
H470        H  0.30303526  0.41304472  0.37950784     0.08610
H471        H  0.32252839  0.48768095  0.38409871     0.08610
H472        H  0.37068500  0.43586343  0.36046373     0.05390
C473        C  0.31305883  0.34540255  0.12723052    -0.20420
C474        C  0.34200622  0.39428180  0.10839448    -0.06980
C475        C  0.34659498  0.39368842  0.05066334     0.13890
C476        C  0.30068270  0.37219469  0.01927823    -0.20470
C477        C  0.26128794  0.33026584  0.03589507    -0.06990
C478        C  0.27200682  0.31449894  0.09300032     0.13880
C479        C  0.23062400  0.28075271  0.12504472    -0.23820
H480        H  0.31454759  0.33721527  0.17139356     0.15160
H481        H  0.29368636  0.39636497  0.98296945     0.15190
C482        C  0.39910275  0.41052700  0.02015288    -0.23770
H483        H  0.23120964  0.29339290  0.16960629     0.05400
H484        H  0.24272357  0.23674383  0.12695549     0.08630
H485        H  0.18726976  0.28606925  0.10854690     0.08630
H486        H  0.40849835  0.45479238  0.01787960     0.08610
H487        H  0.39624273  0.39797488  0.97608067     0.08610
H488        H  0.43642793  0.38969578  0.03768648     0.05390
C489        C  0.75452702  0.90504349  0.21998134    -0.20420
C490        C  0.73501682  0.95744088  0.20095319    -0.06980
C491        C  0.77771759  0.99953098  0.20378928     0.13890
C492        C  0.82338278  0.99448862  0.24125562    -0.20470
C493        C  0.82610814  0.94860066  0.27557946    -0.06990
C494        C  0.80600252  0.90073733  0.24736492     0.13880
C495        C  0.83752965  0.84748983  0.24316349    -0.23820
H496        H  0.73133840  0.86712296  0.22142013     0.15160
H497        H  0.85702904  0.02446581  0.24141080     0.15190
C498        C  0.77767799  0.04932662  0.16941318    -0.23770
H499        H  0.84165524  0.83503653  0.19855113     0.05400
H500        H  0.81417367  0.81416500  0.26406000     0.08630
H501        H  0.88044778  0.85409710  0.25976791     0.08630
H502        H  0.74077407  0.05102993  0.14206127     0.08610
H503        H  0.81549056  0.04731269  0.14323575     0.08610
H504        H  0.77858906  0.08717628  0.19685106     0.05390
C505        C  0.63173219  0.06556576  0.31493705    -0.20420
C506        C  0.60675026  0.11261306  0.29367689    -0.06980
C507        C  0.63113099  0.12572706  0.24000752     0.13890
C508        C  0.64666866  0.08128843  0.20125433    -0.20470
C509        C  0.65934175  0.02771079  0.22105680    -0.06990
C510        C  0.66024378  0.02590336  0.28075042     0.13880
C511        C  0.68647023  0.97850609  0.30862102    -0.23820
H512        H  0.62701617  0.05895487  0.35826812     0.15160
H513        H  0.65329253  0.09038547  0.15794390     0.15190
C514        C  0.67529435  0.17063808  0.24073642    -0.23770
H515        H  0.67502945  0.97713847  0.35104944     0.05400
H516        H  0.73011754  0.98261705  0.30204649     0.08630
H517        H  0.67583685  0.93681582  0.29412118     0.08630
H518        H  0.69363268  0.17738685  0.28310363     0.08610
H519        H  0.65712022  0.20880694  0.22512560     0.08610
H520        H  0.71134244  0.16038582  0.21388653     0.05390
C521        C  0.82241356  0.22263911  0.05039797    -0.20420
C522        C  0.83310098  0.24468422  0.99814727    -0.06980
C523        C  0.81469763  0.20945381  0.95300197     0.13890
C524        C  0.76518237  0.17657577  0.95963438    -0.20470
C525        C  0.73901089  0.17300525  0.01258532    -0.06990
C526        C  0.77688189  0.18628314  0.05773940     0.13880
C527        C  0.77626965  0.15815601  0.11167893    -0.23820
H528        H  0.84593726  0.23815985  0.08661015     0.15160
H529        H  0.74586407  0.15655628  0.92325117     0.15190
C530        C  0.84788762  0.20469287  0.90026823    -0.23770
H531        H  0.81443036  0.13222224  0.11348092     0.05400
H532        H  0.73746597  0.13351808  0.11429797     0.08630
H533        H  0.77926132  0.18873420  0.14720499     0.08630
H534        H  0.89011353  0.18805143  0.91040065     0.08610
H535        H  0.85348999  0.24546171  0.88050527     0.08610
H536        H  0.82731199  0.17564831  0.86938561     0.05390
C537        C  0.65859315  0.21720102  0.10857603    -0.20420
C538        C  0.63836039  0.17652355  0.06832544    -0.06980
C539        C  0.57911130  0.18092701  0.05884125     0.13890
C540        C  0.55191289  0.23249478  0.07103565    -0.20470
C541        C  0.56764162  0.26545296  0.11880475    -0.06990
C542        C  0.62461194  0.26005375  0.13314284     0.13880
C543        C  0.65405264  0.30633690  0.16282957    -0.23820
H544        H  0.70170882  0.22395758  0.11593054     0.15160
H545        H  0.51181964  0.23985767  0.05142767     0.15190
C546        C  0.54521757  0.13605336  0.02942546    -0.23770
H547        H  0.67648612  0.29139738  0.20005361     0.05400
H548        H  0.62727795  0.34282383  0.17242626     0.08630
H549        H  0.68542605  0.31929650  0.13421081     0.08630
H550        H  0.54547475  0.09746771  0.05381399     0.08610
H551        H  0.55813628  0.12759334  0.98743406     0.08610
H552        H  0.50209359  0.14881313  0.02317115     0.05390
C553        C  0.77047296  0.97894340  0.80860880    -0.20420
C554        C  0.71295027  0.97669483  0.79064853    -0.06980
C555        C  0.70405611  0.97314419  0.73221844     0.13890
C556        C  0.74605838  0.94986449  0.70340280    -0.20470
C557        C  0.80278016  0.96161888  0.71084894    -0.06990
C558        C  0.81552597  0.97583617  0.76880658     0.13880
C559        C  0.87368387  0.98524857  0.79156904    -0.23820
H560        H  0.78103851  0.98550002  0.85201602     0.15160
H561        H  0.72998265  0.92213924  0.67346707     0.15190
C562        C  0.64802753  0.97543717  0.69887499    -0.23770
H563        H  0.87372005  0.99750842  0.83649847     0.05400
H564        H  0.89400951  0.01983872  0.76991986     0.08630
H565        H  0.89771154  0.94579245  0.78828857     0.08630
H566        H  0.60891490  0.96957375  0.72073218     0.08610
H567        H  0.64460891  0.94297477  0.66728483     0.08610
H568        H  0.64553609  0.01274532  0.67357039     0.05390
C569        C  0.56553432  0.02627072  0.79686135    -0.20420
C570        C  0.62421434  0.02831171  0.80246378    -0.06980
C571        C  0.64709751  0.07349471  0.76924544     0.13890
C572        C  0.61495735  0.09396857  0.72186691    -0.20470
C573        C  0.55546263  0.08768907  0.71761479    -0.06990
C574        C  0.53519564  0.06690928  0.76817801     0.13880
C575        C  0.52157416  0.11221077  0.80836077    -0.23820
H576        H  0.54190347  0.00540910  0.82591527     0.15160
H577        H  0.63693679  0.11463629  0.68962295     0.15190
C578        C  0.69866646  0.10696597  0.78778842    -0.23770
H579        H  0.55984234  0.13683021  0.80658723     0.05400
H580        H  0.51131183  0.09744712  0.85065540     0.08630
H581        H  0.49249208  0.14482297  0.79699687     0.08630
H582        H  0.69131415  0.13434393  0.82429556     0.08610
H583        H  0.71022853  0.13717793  0.75581898     0.08610
H584        H  0.73518175  0.08102440  0.79814125     0.05390
C585        C  0.63304978  0.68332429  0.11413187    -0.20420
C586        C  0.57603760  0.69452946  0.12209165    -0.06980
C587        C  0.56452329  0.75371608  0.11549298     0.13890
C588        C  0.59318751  0.78443728  0.07514005    -0.20470
C589        C  0.64410970  0.76772093  0.05453337    -0.06990
C590        C  0.66871191  0.72530081  0.09121256     0.13880
C591        C  0.72730020  0.73140421  0.11642196    -0.23820
H592        H  0.65032048  0.64476105  0.12841312     0.15160
H593        H  0.57772546  0.82469773  0.06318302     0.15190
C594        C  0.52122078  0.78532907  0.14703968    -0.23770
H595        H  0.72448716  0.73690356  0.16236297     0.05400
H596        H  0.74918279  0.76861829  0.10081939     0.08630
H597        H  0.75333424  0.69406584  0.11036420     0.08630
H598        H  0.51850188  0.76854259  0.18851772     0.08610
H599        H  0.47963403  0.78471226  0.12766710     0.08610
H600        H  0.53268355  0.83016962  0.15139355     0.05390
C601        C  0.08251208  0.71338043  0.22158635    -0.20420
C602        C  0.03217002  0.68507604  0.20422521    -0.06980
C603        C  0.98351971  0.71844526  0.21354230     0.13890
C604        C  0.98445073  0.75829198  0.25781347    -0.20470
C605        C  0.03229793  0.76602264  0.29218112    -0.06990
C606        C  0.08222209  0.75692894  0.26258289     0.13880
C607        C  0.13456778  0.79126272  0.27330275    -0.23820
H608        H  0.12209552  0.70462448  0.20414959     0.15160
H609        H  0.94896822  0.78432052  0.26380100     0.15190
C610        C  0.93042207  0.71313659  0.17901093    -0.23770
H611        H  0.14558035  0.81291519  0.23459941     0.05400
H612        H  0.17035097  0.76429883  0.28526025     0.08630
H613        H  0.12850247  0.82360375  0.30633652     0.08630
H614        H  0.89503713  0.70166687  0.20589124     0.08610
H615        H  0.93367494  0.68192971  0.14457932     0.08610
H616        H  0.92080921  0.75394768  0.16007803     0.05390
C617        C  0.17099892  0.57281371  0.26054531    -0.20420
C618        C  0.15297372  0.52824306  0.29567091    -0.06980
C619        C  0.09518168  0.52227070  0.29084909     0.13890
C620        C  0.06525801  0.53387689  0.24031435    -0.20470
C621        C  0.07793591  0.58082241  0.20910811    -0.06990
C622        C  0.13452519  0.59759211  0.21815154     0.13880
C623        C  0.16096120  0.61893484  0.16877432    -0.23820
H624        H  0.21472780  0.58436043  0.26160916     0.15160
H625        H  0.02639162  0.51182734  0.23121955     0.15190
C626        C  0.06740494  0.49236899  0.33290252    -0.23770
H627        H  0.17079658  0.57968921  0.14683777     0.05400
H628        H  0.19713509  0.64569985  0.18152863     0.08630
H629        H  0.13249465  0.64161373  0.14018490     0.08630
H630        H  0.06701351  0.51601849  0.37302642     0.08610
H631        H  0.08429561  0.45074032  0.33595427     0.08610
H632        H  0.02651375  0.48571636  0.31731186     0.05390
C633        C  0.26779732  0.48944494  0.07849787    -0.20420
C634        C  0.30705350  0.50182720  0.12164189    -0.06980
C635        C  0.29564425  0.55638774  0.14498764     0.13890
C636        C  0.26359736  0.59649409  0.11191771    -0.20470
C637        C  0.22734275  0.57983584  0.06542926    -0.06990
C638        C  0.22243900  0.52086116  0.06030004     0.13880
C639        C  0.18063704  0.48902427  0.02281642    -0.23820
H640        H  0.27113937  0.45431309  0.05510181     0.15160
H641        H  0.26761538  0.63973070  0.12354262     0.15190
C642        C  0.31837819  0.57429788  0.20194100    -0.23770
H643        H  0.19101852  0.44410147  0.01684237     0.05400
H644        H  0.13967604  0.48818561  0.04347796     0.08630
H645        H  0.17828111  0.50562304  0.98022217     0.08630
H646        H  0.36279249  0.56324535  0.20544643     0.08610
H647        H  0.30078379  0.55476883  0.23775113     0.08610
H648        H  0.30910690  0.61883109  0.21106897     0.05390
C649        C  0.77768752  0.77087627  0.99240420    -0.20420
C650        C  0.72075964  0.75487119  0.99079236    -0.06980
C651        C  0.70835198  0.69627171  0.98912757     0.13890
C652        C  0.74870592  0.66430732  0.01078655    -0.20470
C653        C  0.80570787  0.67125160  0.00274401    -0.06990
C654        C  0.82088006  0.72926036  0.99466403     0.13880
C655        C  0.87944410  0.75087353  0.99257644    -0.23820
H656        H  0.78849533  0.81466652  0.99175793     0.15160
H657        H  0.73221280  0.63579539  0.03960603     0.15190
C658        C  0.64925601  0.66750181  0.98684468    -0.23770
H659        H  0.88107215  0.79628406  0.98423291     0.05400
H660        H  0.90097607  0.72981343  0.95814281     0.08630
H661        H  0.90083263  0.74517098  0.03344914     0.08630
H662        H  0.61189413  0.69361613  0.98951629     0.08610
H663        H  0.64313607  0.63914907  0.02151995     0.08610
H664        H  0.64290445  0.64137026  0.94908264     0.05390
C665        C  0.72476116  0.50349165  0.05583847    -0.20420
C666        C  0.72825259  0.51161121  0.11180512    -0.06980
C667        C  0.76069131  0.55996600  0.12925747     0.13890
C668        C  0.80342459  0.58139685  0.09346652    -0.20470
C669        C  0.80224156  0.56989427  0.03472780    -0.06990
C670        C  0.75047475  0.53842137  0.01946481     0.13880
C671        C  0.70353222  0.55024248  0.97838373    -0.23820
H672        H  0.68970116  0.47862571  0.04093615     0.15160
H673        H  0.83061880  0.61463664  0.10916997     0.15190
C674        C  0.74583581  0.59122979  0.18186730    -0.23770
H675        H  0.66270653  0.55636889  0.99921178     0.05400
H676        H  0.69306733  0.51502524  0.95014499     0.08630
H677        H  0.70889446  0.58765402  0.95817488     0.08630
H678        H  0.75935341  0.56896706  0.21901874     0.08610
H679        H  0.69986156  0.59521005  0.18464615     0.08610
H680        H  0.76440183  0.63364671  0.18310517     0.05390
C681        C  0.06958051  0.70169015  0.80264171    -0.20420
C682        C  0.01721457  0.67710226  0.81387082    -0.06980
C683        C  0.97140886  0.71475478  0.80934308     0.13890
C684        C  0.97528120  0.75918956  0.77135790    -0.20470
C685        C  0.02406591  0.76528966  0.74075884    -0.06990
C686        C  0.07141704  0.75179584  0.77372859     0.13880
C687        C  0.09746579  0.79871597  0.80795707    -0.23820
H688        H  0.10797933  0.68416855  0.81921542     0.15160
H689        H  0.94262992  0.78995270  0.76787999     0.15190
C690        C  0.92526764  0.71613841  0.85026380    -0.23770
H691        H  0.07626451  0.80289875  0.84870452     0.05400
H692        H  0.09118553  0.83870798  0.78673828     0.08630
H693        H  0.14265027  0.79090921  0.81602650     0.08630
H694        H  0.92264143  0.67700998  0.87389951     0.08610
H695        H  0.88475546  0.72449222  0.82932893     0.08610
H696        H  0.93379844  0.75224993  0.87888609     0.05390
C697        C  0.10049477  0.54691858  0.81455122    -0.20420
C698        C  0.06450825  0.58534422  0.79329805    -0.06980
C699        C  0.06756642  0.58719673  0.73412376     0.13890
C700        C  0.10806325  0.55743041  0.70108334    -0.20470
C701        C  0.12970645  0.50732462  0.71928572    -0.06990
C702        C  0.11685508  0.50144394  0.77895614     0.13880
C703        C  0.09066215  0.45116598  0.80174124    -0.23820
H704        H  0.10069749  0.54228421  0.85930976     0.15160
H705        H  0.11544396  0.56827694  0.65891518     0.15190
C706        C  0.02925895  0.62059570  0.70391568    -0.23770
H707        H  0.04933476  0.44880153  0.78338821     0.05400
H708        H  0.08938647  0.44940637  0.84769297     0.08630
H709        H  0.11007328  0.41443724  0.79081807     0.08630
H710        H  0.05637601  0.65638415  0.70408376     0.08610
H711        H  0.99330662  0.64069274  0.72139794     0.08610
H712        H  0.01432901  0.59665975  0.66647488     0.05390
C713        C  0.33441529  0.95496443  0.26196884    -0.20420
C714        C  0.32915899  0.97193808  0.20808564    -0.06980
C715        C  0.26963568  0.98072743  0.19465159     0.13890
C716        C  0.22777136  0.97848104  0.23811802    -0.20470
C717        C  0.24374057  0.97300143  0.29492164    -0.06990
C718        C  0.30315386  0.97358832  0.30504798     0.13880
C719        C  0.33473364  0.96941751  0.36107679    -0.23820
H720        H  0.35314209  0.91537830  0.26905175     0.15160
H721        H  0.18365991  0.97997812  0.22738638     0.15190
C722        C  0.24590691  0.98463457  0.13699560    -0.23770
H723        H  0.35447699  0.00878836  0.37407647     0.05400
H724        H  0.36927250  0.93956336  0.35887901     0.08630
H725        H  0.31142996  0.95354630  0.39571514     0.08630
H726        H  0.25085871  0.94404531  0.11436748     0.08610
H727        H  0.26620910  0.01896404  0.11624195     0.08610
H728        H  0.20034932  0.99398991  0.13648477     0.05390
C729        C  0.40235661  0.07283054  0.23708697    -0.20420
C730        C  0.42283973  0.03205543  0.19681213    -0.06980
C731        C  0.48166446  0.03448456  0.19141207     0.13890
C732        C  0.51515831  0.06336922  0.23148866    -0.20470
C733        C  0.49844141  0.09683718  0.27729089    -0.06990
C734        C  0.43931567  0.09881436  0.28046737     0.13880
C735        C  0.41854902  0.10242643  0.33877957    -0.23820
H736        H  0.35777315  0.07336153  0.24437937     0.15160
H737        H  0.55670698  0.05814174  0.22535323     0.15190
C738        C  0.51299728  0.00442328  0.14553658    -0.23770
H739        H  0.37687683  0.08444450  0.33803112     0.05400
H740        H  0.42109443  0.14365642  0.35924932     0.08630
H741        H  0.44242476  0.07467099  0.36653384     0.08630
H742        H  0.50214479  0.02219239  0.10476187     0.08610
H743        H  0.50711937  0.95860532  0.14573737     0.08610
H744        H  0.55844110  0.01125760  0.15000137     0.05390
C745        C  0.30200709  0.17228245  0.94843702    -0.20420
C746        C  0.31883038  0.16269014  0.00381009    -0.06980
C747        C  0.27404919  0.16510661  0.04166956     0.13890
C748        C  0.22968124  0.20236975  0.03057124    -0.20470
C749        C  0.23267057  0.23624462  0.98436849    -0.06990
C750        C  0.25642141  0.20752398  0.93812534     0.13880
C751        C  0.23397511  0.21282409  0.88009500    -0.23820
H752        H  0.32481083  0.15433293  0.91437165     0.15160
H753        H  0.19280335  0.20372377  0.05604242     0.15190
C754        C  0.26221688  0.11631796  0.07694032    -0.23770
H755        H  0.22118987  0.17133571  0.86361460     0.05400
H756        H  0.26541300  0.23061033  0.85209475     0.08630
H757        H  0.19654868  0.23928075  0.88114045     0.08630
H758        H  0.30178700  0.09974636  0.09475400     0.08610
H759        H  0.24175414  0.08335740  0.05026194     0.08610
H760        H  0.23308110  0.12750281  0.11099029     0.05390
C761        C  0.44529664  0.14718768  0.10759120    -0.20420
C762        C  0.39635495  0.16624357  0.08275096    -0.06980
C763        C  0.37463848  0.21291121  0.11541288     0.13890
C764        C  0.41364741  0.25593945  0.13332481    -0.20470
C765        C  0.46956436  0.24365353  0.14382287    -0.06990
C766        C  0.47995223  0.18386450  0.14085725     0.13880
C767        C  0.53060454  0.15889879  0.16649908    -0.23820
H768        H  0.45869942  0.10538032  0.09743871     0.15160
H769        H  0.40012091  0.29677803  0.14542903     0.15190
C770        C  0.34029777  0.19875964  0.16548725    -0.23770
H771        H  0.52354573  0.16205718  0.20980469     0.05400
H772        H  0.57059581  0.17944251  0.16454193     0.08630
H773        H  0.53898568  0.11681790  0.14925395     0.08630
H774        H  0.36752508  0.17948778  0.19770767     0.08610
H775        H  0.30629951  0.16932446  0.15642456     0.08610
H776        H  0.32145084  0.23670906  0.18458682     0.05390
C777        C  0.23882653  0.71620924  0.05632005    -0.20420
C778        C  0.22566237  0.68045085  0.01001849    -0.06980
C779        C  0.22918772  0.70983607  0.95859764     0.13890
C780        C  0.27239368  0.74972668  0.95234407    -0.20470
C781        C  0.30294970  0.77076835  0.99903091    -0.06990
C782        C  0.27346253  0.76462692  0.04980198     0.13880
C783        C  0.27599115  0.80893609  0.09545997    -0.23820
H784        H  0.22021369  0.70877773  0.09614311     0.15160
H785        H  0.28223020  0.76404916  0.91116913     0.15190
C786        C  0.18170896  0.71156710  0.91629132    -0.23770
H787        H  0.28316094  0.79024465  0.13674741     0.05400
H788        H  0.23509392  0.83080622  0.09682038     0.08630
H789        H  0.30930872  0.84018136  0.08837356     0.08630
H790        H  0.15182928  0.67655906  0.91964394     0.08610
H791        H  0.19832359  0.71092208  0.87331728     0.08610
H792        H  0.15831169  0.75120645  0.92223744     0.05390
C793        C  0.48767650  0.69805156  0.04882730    -0.20420
C794        C  0.47637695  0.67342900  0.10040592    -0.06980
C795        C  0.42228287  0.68723900  0.11744457     0.13890
C796        C  0.38708890  0.72833661  0.09117229    -0.20470
C797        C  0.40444495  0.76043421  0.04514327    -0.06990
C798        C  0.45971807  0.74875034  0.03322835     0.13880
C799        C  0.48945270  0.79330196  0.00739209    -0.23820
H800        H  0.52628913  0.68701451  0.02858863     0.15160
H801        H  0.34576226  0.72953912  0.10638449     0.15190
C802        C  0.39456830  0.64707664  0.15055744    -0.23770
H803        H  0.49077056  0.83112439  0.03497222     0.05400
H804        H  0.47613485  0.80313757  0.96488689     0.08630
H805        H  0.52851610  0.77519031  0.00535059     0.08630
H806        H  0.38149769  0.66595921  0.19047568     0.08610
H807        H  0.41926999  0.60830510  0.15358379     0.08610
H808        H  0.35796836  0.63601862  0.12618448     0.05390
C809        C  0.24351272  0.02680195  0.73986002    -0.20420
C810        C  0.22734453  0.97456054  0.71448834    -0.06980
C811        C  0.23130660  0.93027884  0.75249041     0.13890
C812        C  0.27087642  0.93362924  0.79666560    -0.20470
C813        C  0.30769316  0.97840138  0.80017850    -0.06990
C814        C  0.27973345  0.02813812  0.78657030     0.13880
C815        C  0.28068144  0.07755206  0.82606045    -0.23820
H816        H  0.23113412  0.06645073  0.72529872     0.15160
H817        H  0.26727143  0.90619147  0.83128352     0.15190
C818        C  0.19012267  0.88454752  0.75351556    -0.23770
H819        H  0.23879731  0.08074480  0.84506204     0.05400
H820        H  0.28947271  0.11679233  0.80462296     0.08630
H821        H  0.31182808  0.07212861  0.86026224     0.08630
H822        H  0.16220452  0.88427629  0.71651703     0.08610
H823        H  0.16524642  0.89134966  0.79153637     0.08610
H824        H  0.21253749  0.84444645  0.75662026     0.05390
C825        C  0.40536700  0.08244761  0.78427039    -0.20420
C826        C  0.39188127  0.02718223  0.77078618    -0.06980
C827        C  0.39522843  0.01806432  0.71097988     0.13890
C828        C  0.43251767  0.05009529  0.67804928    -0.20470
C829        C  0.45156480  0.10249269  0.69586799    -0.06990
C830        C  0.41643875  0.12218498  0.74029908     0.13880
C831        C  0.36411358  0.15051566  0.71718511    -0.23820
H832        H  0.40808536  0.09265223  0.82765977     0.15160
H833        H  0.44735046  0.03414361  0.63949149     0.15190
C834        C  0.36442405  0.97255991  0.68256585    -0.23770
H835        H  0.32630213  0.12453051  0.72249572     0.05400
H836        H  0.36674697  0.15661559  0.67156010     0.08630
H837        H  0.35690191  0.19228212  0.73578201     0.08630
H838        H  0.32232021  0.98689674  0.68210410     0.08610
H839        H  0.36168066  0.93297252  0.70210675     0.08610
H840        H  0.38246042  0.96306358  0.64212545     0.05390
C841        C  0.62795087  0.69630527  0.86739680    -0.20420
C842        C  0.56846896  0.69213816  0.87517662    -0.06980
C843        C  0.55027655  0.74495230  0.89523805     0.13890
C844        C  0.58254693  0.77992906  0.93204186    -0.20470
C845        C  0.63820070  0.77436772  0.93859616    -0.06990
C846        C  0.66047362  0.74263531  0.89215098     0.13880
C847        C  0.70358529  0.77180557  0.85838084    -0.23820
H848        H  0.64925786  0.66626694  0.84247750     0.15160
H849        H  0.56737516  0.81973220  0.94602315     0.15190
C850        C  0.53250350  0.77974363  0.85031731    -0.23770
H851        H  0.70759701  0.75233379  0.81623524     0.05400
H852        H  0.74448804  0.77472056  0.88036381     0.08630
H853        H  0.68973236  0.81535130  0.85203507     0.08630
H854        H  0.50529498  0.81184006  0.86815775     0.08610
H855        H  0.51092975  0.76079399  0.81420503     0.08610
H856        H  0.57270609  0.79344343  0.83265554     0.05390
C857        C  0.44587104  0.65954947  0.92036017    -0.20420
C858        C  0.46278606  0.67478836  0.86785476    -0.06980
C859        C  0.42845237  0.72053252  0.84822024     0.13890
C860        C  0.41132445  0.76338078  0.88883491    -0.20470
C861        C  0.39100128  0.74747055  0.94082004    -0.06990
C862        C  0.40288245  0.69000236  0.94840408     0.13880
C863        C  0.37105406  0.65821433  0.98501203    -0.23820
H864        H  0.46185977  0.62157855  0.93805632     0.15160
H865        H  0.41110544  0.80685365  0.87884987     0.15190
C866        C  0.37912925  0.69878254  0.81464045    -0.23770
H867        H  0.40128900  0.64281826  0.01600048     0.05400
H868        H  0.35307132  0.62794653  0.95529336     0.08630
H869        H  0.33643885  0.67718560  0.00694481     0.08630
H870        H  0.38050765  0.65296762  0.81222299     0.08610
H871        H  0.37826015  0.71366124  0.77184586     0.08610
H872        H  0.33918502  0.71076577  0.83456111     0.05390
C873        C  0.77070667  0.43037658  0.93653611    -0.20420
C874        C  0.73446050  0.41498661  0.89184922    -0.06980
C875        C  0.72984030  0.35704559  0.88661269     0.13890
C876        C  0.77462904  0.32186864  0.90787680    -0.20470
C877        C  0.82010669  0.34236130  0.94488669    -0.06990
C878        C  0.81845279  0.40128199  0.95356087     0.13880
C879        C  0.86225886  0.43376810  0.98863225    -0.23820
H880        H  0.76798437  0.47003394  0.95308832     0.15160
H881        H  0.76809005  0.27852403  0.89867437     0.15190
C882        C  0.67798485  0.33292100  0.85876934    -0.23770
H883        H  0.84681501  0.47484364  0.00284666     0.05400
H884        H  0.90018343  0.44070521  0.96390911     0.08630
H885        H  0.87527949  0.41465908  0.02790469     0.08630
H886        H  0.67073221  0.34768460  0.81594276     0.08610
H887        H  0.64146497  0.34883979  0.88040956     0.08610
H888        H  0.67877756  0.28660553  0.85873597     0.05390
C889        C  0.73518413  0.57391494  0.86579963    -0.20420
C890        C  0.74800575  0.51622462  0.86402876    -0.06980
C891        C  0.80680451  0.51015590  0.86993635     0.13890
C892        C  0.83480167  0.53780953  0.91503493    -0.20470
C893        C  0.81798324  0.59072613  0.93171450    -0.06990
C894        C  0.77464795  0.61260225  0.89441339     0.13880
C895        C  0.78548816  0.66558605  0.86579313    -0.23820
H896        H  0.69772281  0.58829433  0.84510614     0.15160
H897        H  0.87544468  0.52401120  0.92837033     0.15190
C898        C  0.83552238  0.52300424  0.82014160    -0.23770
H899        H  0.75057138  0.67488408  0.83688567     0.05400
H900        H  0.82250031  0.65941145  0.83957318     0.08630
H901        H  0.79383634  0.70024729  0.89535613     0.08630
H902        H  0.87744195  0.51011416  0.82683614     0.08610
H903        H  0.81873138  0.50062849  0.78454953     0.08610
H904        H  0.83277436  0.56814653  0.81307609     0.05390
C905        C  0.32338887  0.48144992  0.73820937    -0.20420
C906        C  0.30617372  0.47834590  0.79471124    -0.06980
C907        C  0.24714152  0.48164750  0.80037933     0.13890
C908        C  0.22068095  0.44939590  0.76161753    -0.20470
C909        C  0.22452484  0.46077053  0.70661443    -0.06990
C910        C  0.28038321  0.48250138  0.69428040     0.13880
C911        C  0.29561109  0.51219076  0.64228415    -0.23820
H912        H  0.36696458  0.48841497  0.72895413     0.15160
H913        H  0.18950490  0.42498363  0.77711850     0.15190
C914        C  0.21208738  0.49617430  0.85237535    -0.23770
H915        H  0.33283744  0.53946855  0.64998407     0.05400
H916        H  0.26105590  0.54008891  0.62899006     0.08630
H917        H  0.30754806  0.48163682  0.60916117     0.08630
H918        H  0.23023673  0.49056461  0.89389575     0.08610
H919        H  0.17684788  0.46847139  0.85742234     0.08610
H920        H  0.19581483  0.53850716  0.84910958     0.05390
C921        C  0.32176655  0.51022958  0.94147507    -0.20420
C922        C  0.32416684  0.52252492  0.88644030    -0.06980
C923        C  0.29536986  0.57421306  0.87141635     0.13890
C924        C  0.25557677  0.59824730  0.90966782    -0.20470
C925        C  0.25325306  0.58527532  0.96691674    -0.06990
C926        C  0.30041071  0.54726181  0.98038927     0.13880
C927        C  0.34736981  0.55423321  0.02333887    -0.23820
H928        H  0.34518843  0.47496194  0.95507150     0.15160
H929        H  0.22373448  0.62321043  0.89167867     0.15190
C930        C  0.29136818  0.59642840  0.81281354    -0.23770
H931        H  0.35811484  0.51665730  0.04405365     0.05400
H932        H  0.34153939  0.58858426  0.05245319     0.08630
H933        H  0.38882674  0.55800955  0.00320249     0.08630
H934        H  0.25240901  0.58375627  0.79033773     0.08610
H935        H  0.32784682  0.58421595  0.78751271     0.08610
H936        H  0.28633776  0.64202651  0.81455679     0.05390
C937        C  0.25534722  0.39468627  0.86382575    -0.20420
C938        C  0.31166663  0.41155319  0.87414731    -0.06980
C939        C  0.33718896  0.36197545  0.89059087     0.13890
C940        C  0.30537280  0.31779457  0.91707752    -0.20470
C941        C  0.24642721  0.32505785  0.93171424    -0.06990
C942        C  0.22147501  0.36683763  0.90147828     0.13880
C943        C  0.16048953  0.36586052  0.88994985    -0.23820
H944        H  0.24979824  0.37611922  0.82271593     0.15160
H945        H  0.32707037  0.28133229  0.92941537     0.15190
C946        C  0.39149161  0.35192559  0.86642733    -0.23770
H947        H  0.15415450  0.37075102  0.84595861     0.05400
H948        H  0.13977408  0.40035263  0.91311918     0.08630
H949        H  0.14143071  0.32490385  0.89678399     0.08630
H950        H  0.42409702  0.36760310  0.89497300     0.08610
H951        H  0.39293225  0.37286634  0.82654564     0.08610
H952        H  0.39531728  0.30931207  0.85349152     0.05390
C953        C  0.47611135  0.22365589  0.71172294    -0.20420
C954        C  0.52142128  0.18777848  0.70309599    -0.06980
C955        C  0.57235156  0.21074143  0.72536990     0.13890
C956        C  0.57235956  0.24427017  0.77442255    -0.20470
C957        C  0.52225529  0.26566106  0.79630364    -0.06990
C958        C  0.47787946  0.26607747  0.75423562     0.13880
C959        C  0.43760541  0.31301768  0.74411337    -0.23820
H960        H  0.44061609  0.22058876  0.68325669     0.15160
H961        H  0.61209061  0.25612596  0.79338976     0.15190
C962        C  0.62116922  0.21780429  0.68900641    -0.23770
H963        H  0.39374001  0.30091553  0.75231878     0.05400
H964        H  0.43918767  0.32453127  0.69957625     0.08630
H965        H  0.44933569  0.35132131  0.76630505     0.08630
H966        H  0.61301660  0.19406174  0.64998831     0.08610
H967        H  0.66040726  0.20447210  0.71000305     0.08610
H968        H  0.62552527  0.26259251  0.67877636     0.05390
C969        C  0.58224443  0.20509656  0.88808562    -0.20420
C970        C  0.57231551  0.26319824  0.89543195    -0.06980
C971        C  0.59447639  0.28334706  0.94755893     0.13890
C972        C  0.62770379  0.24712628  0.97928492    -0.20470
C973        C  0.64447326  0.19110439  0.96741339    -0.06990
C974        C  0.62050983  0.17089870  0.91824576     0.13880
C975        C  0.62534842  0.11074281  0.90371018    -0.23820
H976        H  0.54793703  0.18516677  0.87045311     0.15160
H977        H  0.63245624  0.26216070  0.01993663     0.15190
C978        C  0.58365443  0.34014438  0.97638939    -0.23770
H979        H  0.61621999  0.10779573  0.86105784     0.05400
H980        H  0.59357947  0.08358421  0.92191861     0.08630
H981        H  0.66872250  0.09515374  0.90838096     0.08630
H982        H  0.54016527  0.34789023  0.98673923     0.08610
H983        H  0.60186762  0.37539262  0.95412606     0.08610
H984        H  0.60317051  0.34406851  0.01847922     0.05390
C985        C  0.46024882  0.27448272  0.94721922    -0.20420
C986        C  0.47142085  0.25717575  0.89307824    -0.06980
C987        C  0.44559550  0.20348861  0.87971697     0.13890
C988        C  0.43528839  0.16456572  0.92358630    -0.20470
C989        C  0.41803175  0.18427046  0.97667762    -0.06990
C990        C  0.42672399  0.24316448  0.98326866     0.13880
C991        C  0.39300515  0.27935580  0.01847633    -0.23820
H992        H  0.46708662  0.31761735  0.95724344     0.15160
H993        H  0.42437634  0.12199888  0.91240367     0.15190
C994        C  0.39401657  0.20700728  0.84337886    -0.23770
H995        H  0.37848020  0.31178523  0.99208894     0.05400
H996        H  0.42046482  0.30138935  0.04878449     0.08630
H997        H  0.35372534  0.26095202  0.03209912     0.08630
H998        H  0.40221823  0.22710476  0.80478158     0.08610
H999        H  0.36162560  0.23047964  0.86524493     0.08610
H1000       H  0.37167423  0.16819875  0.83466124     0.05390
C1001       C  0.79788933  0.84701870  0.45310093    -0.20420
C1002       C  0.73816429  0.83696361  0.44731802    -0.06980
C1003       C  0.72309474  0.84675504  0.39202098     0.13890
C1004       C  0.75936520  0.87552220  0.35489070    -0.20470
C1005       C  0.81500795  0.89755868  0.36877431    -0.06990
C1006       C  0.83317608  0.88107978  0.42211082     0.13880
C1007       C  0.89380145  0.88357068  0.44075164    -0.23820
H1008       H  0.82206574  0.80989365  0.45405075     0.15160
H1009       H  0.74007599  0.88281715  0.31651237     0.15190
C1010       C  0.67544715  0.81543552  0.36870394    -0.23770
H1011       H  0.90720829  0.84744969  0.46424152     0.05400
H1012       H  0.90317644  0.92052636  0.46783566     0.08630
H1013       H  0.92087754  0.87957067  0.40494833     0.08630
H1014       H  0.63592395  0.82774993  0.38830475     0.08610
H1015       H  0.68593330  0.77186980  0.37848843     0.08610
H1016       H  0.67236175  0.81933715  0.32304691     0.05390
C1017       C  0.72063712  0.89675489  0.54341938    -0.20420
C1018       C  0.71354302  0.84230136  0.55494525    -0.06980
C1019       C  0.74561311  0.82521095  0.60524217     0.13890
C1020       C  0.79317094  0.85856219  0.62583296    -0.20470
C1021       C  0.79983923  0.91585967  0.61189912    -0.06990
C1022       C  0.75108604  0.93312344  0.57711822     0.13880
C1023       C  0.71131450  0.98077561  0.58682794    -0.23820
H1024       H  0.69451746  0.91211343  0.51077054     0.15160
H1025       H  0.81935245  0.84269078  0.65887347     0.15190
C1026       C  0.73668010  0.76833438  0.63087007    -0.23770
H1027       H  0.71240501  0.00682283  0.55169235     0.05400
H1028       H  0.71765742  0.00455127  0.62463244     0.08630
H1029       H  0.66652151  0.96790138  0.58727211     0.08630
H1030       H  0.77242395  0.74063079  0.62354017     0.08610
H1031       H  0.69952014  0.74666685  0.61213627     0.08610
H1032       H  0.73196842  0.77219972  0.67672251     0.05390
C1033       C  0.57079144  0.72881038  0.71985907    -0.20420
C1034       C  0.51888467  0.75209589  0.70139252    -0.06980
C1035       C  0.47423105  0.71215426  0.70262142     0.13890
C1036       C  0.47647393  0.66964556  0.74318790    -0.20470
C1037       C  0.52408610  0.66397478  0.77809990    -0.06990
C1038       C  0.57331189  0.68142081  0.75266042     0.13880
C1039       C  0.62198241  0.64229664  0.74485293    -0.23820
H1040       H  0.61057209  0.74566212  0.71048154     0.15160
H1041       H  0.44220717  0.64055024  0.74668880     0.15190
C1042       C  0.42821176  0.70870484  0.65939061    -0.23770
H1043       H  0.62147185  0.62602045  0.70112993     0.05400
H1044       H  0.61929088  0.60590820  0.77244301     0.08630
H1045       H  0.66242586  0.66461152  0.75204745     0.08630
H1046       H  0.43365932  0.74027134  0.62767439     0.08610
H1047       H  0.38644164  0.71327550  0.67824687     0.08610
H1048       H  0.42967898  0.66727926  0.63764900     0.05390
C1049       C  0.54292479  0.86758856  0.78015678    -0.20420
C1050       C  0.56048871  0.84650416  0.72658421    -0.06980
C1051       C  0.61728553  0.85243341  0.72134270     0.13890
C1052       C  0.65173839  0.87717358  0.76606432    -0.20470
C1053       C  0.62876232  0.91615163  0.80709116    -0.06990
C1054       C  0.57284206  0.90245916  0.81870897     0.13880
C1055       C  0.54549701  0.91378763  0.87489635    -0.23820
H1056       H  0.50274087  0.85626552  0.79380599     0.15160
H1057       H  0.69661125  0.87353125  0.76259241     0.15190
C1058       C  0.63938366  0.84016577  0.66570973    -0.23770
H1059       H  0.50207491  0.89790384  0.87646164     0.05400
H1060       H  0.53911484  0.95671985  0.88967313     0.08630
H1061       H  0.57147305  0.89450063  0.90696739     0.08630
H1062       H  0.62017477  0.86605947  0.63305260     0.08610
H1063       H  0.63307535  0.79731023  0.64992171     0.08610
H1064       H  0.68246777  0.85083531  0.67104050     0.05390
C1065       C  0.42162348  0.83087538  0.73784402    -0.20420
C1066       C  0.46301014  0.85087632  0.70085503    -0.06980
C1067       C  0.46987267  0.91010802  0.70471925     0.13890
C1068       C  0.45612465  0.93732046  0.75600974    -0.20470
C1069       C  0.40800043  0.92359601  0.78704509    -0.06990
C1070       C  0.39100184  0.86650730  0.77581609     0.13880
C1071       C  0.34293850  0.84011508  0.80339217    -0.23820
H1072       H  0.41294061  0.78746503  0.73806504     0.15160
H1073       H  0.47733504  0.97548389  0.76570491     0.15190
C1074       C  0.50554211  0.94155580  0.66445985    -0.23770
H1075       H  0.34926118  0.79600808  0.80763571     0.05400
H1076       H  0.30608725  0.83981819  0.77513628     0.08630
H1077       H  0.33778410  0.85728931  0.84628126     0.08630
H1078       H  0.54596886  0.92167996  0.65642777     0.08610
H1079       H  0.51692894  0.98361460  0.68070480     0.08610
H1080       H  0.48236821  0.94546760  0.62438335     0.05390
C1081       C  0.47731218  0.71154591  0.28240156    -0.20420
C1082       C  0.52567593  0.74369984  0.29145378    -0.06980
C1083       C  0.57471800  0.71265235  0.28017830     0.13890
C1084       C  0.57442424  0.67516718  0.23473055    -0.20470
C1085       C  0.52392891  0.66522800  0.20525673    -0.06990
C1086       C  0.47704015  0.66769198  0.24159949     0.13880
C1087       C  0.45104623  0.61510198  0.26305706    -0.23820
H1088       H  0.44244526  0.71754128  0.31005306     0.15160
H1089       H  0.61326066  0.65654550  0.22112924     0.15190
C1090       C  0.62188027  0.70934636  0.31987005    -0.23770
H1091       H  0.40775643  0.62339395  0.27728193     0.05400
H1092       H  0.47613329  0.60061334  0.29934481     0.08630
H1093       H  0.45003023  0.58035460  0.23245544     0.08630
H1094       H  0.62877147  0.66514775  0.33122741     0.08610
H1095       H  0.60952317  0.73197540  0.35812991     0.08610
H1096       H  0.66040021  0.72495657  0.30022570     0.05390
C1097       C  0.58544373  0.93877106  0.24770470    -0.20420
C1098       C  0.62699447  0.92583541  0.20784460    -0.06980
C1099       C  0.63220174  0.86842980  0.20018461     0.13890
C1100       C  0.60477258  0.82857840  0.23569733    -0.20470
C1101       C  0.57272635  0.84438310  0.28408355    -0.06990
C1102       C  0.57431633  0.90343427  0.29281016     0.13880
C1103       C  0.57316506  0.93146949  0.34999616    -0.23820
H1104       H  0.57269877  0.98014769  0.25403383     0.15160
H1105       H  0.60822543  0.78576059  0.22279918     0.15190
C1106       C  0.66081794  0.85033480  0.14904440    -0.23770
H1107       H  0.58282889  0.97602279  0.34792647     0.05400
H1108       H  0.60402008  0.91167817  0.37741376     0.08630
H1109       H  0.53368138  0.93462082  0.37115618     0.08630
H1110       H  0.70314858  0.86531281  0.14006250     0.08610
H1111       H  0.63678264  0.86738302  0.11416019     0.08610
H1112       H  0.66387230  0.80585182  0.15214845     0.05390
C1113       C  0.42659044  0.87137037  0.19174840    -0.20420
C1114       C  0.42951545  0.92766874  0.20956383    -0.06980
C1115       C  0.45045792  0.93286095  0.26793939     0.13890
C1116       C  0.46048053  0.88705455  0.30075830    -0.20470
C1117       C  0.46931735  0.83505595  0.28126955    -0.06990
C1118       C  0.44068493  0.82600227  0.22806263     0.13880
C1119       C  0.39827790  0.78011942  0.22245903    -0.23820
H1120       H  0.40423004  0.86211688  0.15288490     0.15160
H1121       H  0.46536845  0.89145747  0.34443506     0.15190
C1122       C  0.45351645  0.98221139  0.30623312    -0.23770
H1123       H  0.36036553  0.79183100  0.19805819     0.05400
H1124       H  0.38244794  0.76637479  0.26284757     0.08630
H1125       H  0.41875487  0.74656337  0.20051049     0.08630
H1126       H  0.41526274  0.00407554  0.30258366     0.08610
H1127       H  0.45275320  0.97550061  0.35183070     0.08610
H1128       H  0.49470262  0.00103249  0.30432442     0.05390
C1129       C  0.31630067  0.72601260  0.55118676    -0.20420
C1130       C  0.32315710  0.74714454  0.49807517    -0.06980
C1131       C  0.30720271  0.70584394  0.45627977     0.13890
C1132       C  0.26966573  0.66280213  0.47121078    -0.20470
C1133       C  0.23773026  0.66879729  0.52017782    -0.06990
C1134       C  0.26186328  0.70739377  0.55997818     0.13880
C1135       C  0.23136724  0.75808065  0.57870604    -0.23820
H1136       H  0.33828217  0.74390505  0.58609476     0.15160
H1137       H  0.26408316  0.62762993  0.44364301     0.15190
C1138       C  0.33300986  0.70118526  0.39993703    -0.23770
H1139       H  0.23095673  0.78546040  0.54448263     0.05400
H1140       H  0.25216524  0.77557935  0.61624590     0.08630
H1141       H  0.18770836  0.75921853  0.58402345     0.08630
H1142       H  0.37914597  0.70574320  0.40411605     0.08610
H1143       H  0.31342644  0.73135361  0.37153240     0.08610
H1144       H  0.32518923  0.65944335  0.38003185     0.05390
C1145       C  0.28029581  0.87909203  0.64030088    -0.20420
C1146       C  0.22914520  0.90731590  0.62594870    -0.06980
C1147       C  0.21354248  0.89527108  0.57119335     0.13890
C1148       C  0.25483612  0.88299332  0.53014725    -0.20470
C1149       C  0.30519122  0.85157913  0.54002074    -0.06990
C1150       C  0.31709428  0.85282488  0.59884928     0.13880
C1151       C  0.37190336  0.83537047  0.61931258    -0.23820
H1152       H  0.29368190  0.87927835  0.68315536     0.15160
H1153       H  0.25004921  0.90470805  0.49224515     0.15190
C1154       C  0.15488728  0.87507619  0.56279168    -0.23770
H1155       H  0.36465633  0.80724736  0.65408752     0.05400
H1156       H  0.39443596  0.87379600  0.63038674     0.08630
H1157       H  0.39788144  0.81397722  0.58879607     0.08630
H1158       H  0.13004403  0.90342604  0.53672871     0.08610
H1159       H  0.13392589  0.86813917  0.60291770     0.08610
H1160       H  0.15507741  0.83373945  0.54376379     0.05390
C1161       C  0.23928015  0.82297971  0.43322321    -0.20420
C1162       C  0.29843797  0.82679648  0.43408419    -0.06980
C1163       C  0.31491178  0.84292817  0.38113777     0.13890
C1164       C  0.27486780  0.86925259  0.34350966    -0.20470
C1165       C  0.22798692  0.90002207  0.36575409    -0.06990
C1166       C  0.20707121  0.86682039  0.40753795     0.13880
C1167       C  0.15249381  0.87784446  0.42713974    -0.23820
H1168       H  0.21916134  0.79525213  0.46084281     0.15160
H1169       H  0.28318284  0.87007781  0.29974323     0.15190
C1170       C  0.37199476  0.83140944  0.36357413    -0.23770
H1171       H  0.14806851  0.85092422  0.46084785     0.05400
H1172       H  0.12159219  0.86948822  0.39351921     0.08630
H1173       H  0.14996242  0.91904654  0.44614538     0.08630
H1174       H  0.38526910  0.78796166  0.36729745     0.08610
H1175       H  0.40035990  0.85742633  0.38990776     0.08610
H1176       H  0.37277887  0.84109825  0.31952721     0.05390
C1177       C  0.77161894  0.65273864  0.48771475    -0.20420
C1178       C  0.82485388  0.67221788  0.51147387    -0.06980
C1179       C  0.82607689  0.72941772  0.52521918     0.13890
C1180       C  0.78008310  0.75740743  0.52248014    -0.20470
C1181       C  0.72854358  0.74624082  0.50306566    -0.06990
C1182       C  0.72307585  0.68944971  0.48383983     0.13880
C1183       C  0.66896448  0.66653170  0.46097188    -0.23820
H1184       H  0.76764634  0.61163153  0.46897590     0.15160
H1185       H  0.78848501  0.79760760  0.53033449     0.15190
C1186       C  0.87373484  0.77081229  0.53700613    -0.23770
H1187       H  0.67386268  0.62348329  0.44350671     0.05400
H1188       H  0.65351282  0.69330892  0.42765260     0.08630
H1189       H  0.63793023  0.66493950  0.49471278     0.08630
H1190       H  0.90439719  0.76865210  0.50415619     0.08610
H1191       H  0.87671454  0.77321732  0.58256625     0.08610
H1192       H  0.86781518  0.81685623  0.53596097     0.05390
C1193       C  0.88274956  0.71132445  0.41716486    -0.20420
C1194       C  0.90530702  0.66531453  0.44761951    -0.06980
C1195       C  0.95574853  0.64825403  0.42508524     0.13890
C1196       C  0.99052162  0.68784355  0.39928143    -0.20470
C1197       C  0.97631270  0.74253617  0.38065285    -0.06990
C1198       C  0.91648208  0.74836266  0.38422980     0.13880
C1199       C  0.88463601  0.78241281  0.34474056    -0.23820
H1200       H  0.83823490  0.71894108  0.41833250     0.15160
H1201       H  0.03267502  0.67689787  0.40451230     0.15190
C1202       C  0.98044613  0.59510008  0.44344830    -0.23770
H1203       H  0.84203149  0.79114705  0.35945082     0.05400
H1204       H  0.87773115  0.75654813  0.30631956     0.08630
H1205       H  0.90733498  0.82146698  0.33739340     0.08630
H1206       H  0.95095287  0.56194315  0.43237460     0.08610
H1207       H  0.98321334  0.59728980  0.48785916     0.08610
H1208       H  0.02315051  0.58552556  0.42997945     0.05390
C1209       C  0.90113216  0.67513761  0.61600359    -0.20420
C1210       C  0.92130583  0.66933288  0.56039142    -0.06980
C1211       C  0.96377200  0.71036717  0.55371211     0.13890
C1212       C  0.97232417  0.75844702  0.58937475    -0.20470
C1213       C  0.96754885  0.75525520  0.64516517    -0.06990
C1214       C  0.92320781  0.71588119  0.65862549     0.13880
C1215       C  0.87871285  0.73848535  0.69675082    -0.23820
H1216       H  0.86037057  0.65742950  0.62050644     0.15160
H1217       H  0.99450561  0.79325322  0.57413467     0.15190
C1218       C  0.00268068  0.71125106  0.51096283    -0.23770
H1219       H  0.83636980  0.72847927  0.68136180     0.05400
H1220       H  0.88073554  0.78466292  0.70046218     0.08630
H1221       H  0.88090605  0.72004366  0.73775887     0.08630
H1222       H  0.03882339  0.73019690  0.52862510     0.08610
H1223       H  0.98524567  0.73932125  0.48156915     0.08610
H1224       H  0.02232309  0.67284692  0.49938211     0.05390
C1225       C  0.77114284  0.40453551  0.70445273    -0.20420
C1226       C  0.79649381  0.45422612  0.69193864    -0.06980
C1227       C  0.75604207  0.49711953  0.70073330     0.13890
C1228       C  0.72066800  0.49331685  0.74820914    -0.20470
C1229       C  0.72659246  0.44786552  0.78570243    -0.06990
C1230       C  0.75290337  0.39907598  0.75898810     0.13880
C1231       C  0.77621182  0.34625447  0.78314869    -0.23820
H1232       H  0.77842374  0.36930932  0.67825020     0.15160
H1233       H  0.69254187  0.52746412  0.75778372     0.15190
C1234       C  0.73304056  0.53017049  0.65279083    -0.23770
H1235       H  0.80705724  0.32518643  0.75717882     0.05400
H1236       H  0.74575612  0.31197196  0.78608226     0.08630
H1237       H  0.80317974  0.35696627  0.81909880     0.08630
H1238       H  0.69264636  0.51130679  0.63826790     0.08610
H1239       H  0.76116907  0.53007126  0.61677257     0.08610
H1240       H  0.72466744  0.57403595  0.66614696     0.05390
C1241       C  0.88994762  0.39885843  0.77478688    -0.20420
C1242       C  0.88666372  0.39747351  0.71547524    -0.06980
C1243       C  0.89885359  0.34155152  0.69741817     0.13890
C1244       C  0.93525118  0.30617187  0.73028393    -0.20470
C1245       C  0.95666537  0.32092039  0.78527086    -0.06990
C1246       C  0.92376760  0.36335858  0.80881995     0.13880
C1247       C  0.91596224  0.36709954  0.86956990    -0.23820
H1248       H  0.86502616  0.42821394  0.79562630     0.15160
H1249       H  0.95078730  0.26961975  0.70985053     0.15190
C1250       C  0.86041311  0.31075914  0.65801293    -0.23770
H1251       H  0.88143004  0.39583146  0.87733821     0.05400
H1252       H  0.95079369  0.38638042  0.89266778     0.08630
H1253       H  0.90720356  0.32498756  0.88505657     0.08630
H1254       H  0.85076521  0.33494108  0.62041840     0.08610
H1255       H  0.82161349  0.29644304  0.67699571     0.08610
H1256       H  0.87737344  0.26938442  0.65043733     0.05390
C1257       C  0.95000168  0.49258800  0.74548093    -0.20420
C1258       C  0.90069521  0.50608548  0.71411142    -0.06980
C1259       C  0.88790685  0.56462020  0.72362615     0.13890
C1260       C  0.91878175  0.59922433  0.76468624    -0.20470
C1261       C  0.96208789  0.57907320  0.80080524    -0.06990
C1262       C  0.96788413  0.52133216  0.79504907     0.13880
C1263       C  0.97959866  0.48846608  0.84642945    -0.23820
H1264       H  0.96847826  0.45344390  0.73971243     0.15160
H1265       H  0.90743093  0.64192511  0.76872851     0.15190
C1266       C  0.83767100  0.59106360  0.69893835    -0.23770
H1267       H  0.94872690  0.49596044  0.87934045     0.05400
H1268       H  0.01999387  0.49753494  0.86471968     0.08630
H1269       H  0.98099214  0.44428954  0.83620199     0.08630
H1270       H  0.80145008  0.58400345  0.72538426     0.08610
H1271       H  0.83256680  0.57760525  0.65479355     0.08610
H1272       H  0.84022151  0.63661398  0.70244957     0.05390
C1273       C  0.78085677  0.45690533  0.29935822    -0.20420
C1274       C  0.83721410  0.45997265  0.28215695    -0.06980
C1275       C  0.84676520  0.46179640  0.22329566     0.13890
C1276       C  0.80296243  0.47123311  0.18900511    -0.20470
C1277       C  0.74594299  0.46616913  0.20288780    -0.06990
C1278       C  0.73501585  0.45778876  0.26057649     0.13880
C1279       C  0.67790803  0.44721840  0.28322063    -0.23820
H1280       H  0.77134527  0.45233398  0.34244060     0.15160
H1281       H  0.81469281  0.47384336  0.14568115     0.15190
C1282       C  0.90270279  0.46032404  0.19175893    -0.23770
H1283       H  0.67970465  0.43637055  0.32795036     0.05400
H1284       H  0.65802391  0.41099741  0.26085601     0.08630
H1285       H  0.65262974  0.48587830  0.28100752     0.08630
H1286       H  0.94144928  0.46366483  0.21704705     0.08610
H1287       H  0.90514582  0.49473752  0.16181292     0.08610
H1288       H  0.90440788  0.42213324  0.16504719     0.05390
C1289       C  0.90564152  0.36485146  0.26488168    -0.20420
C1290       C  0.92525693  0.41063928  0.30060909    -0.06980
C1291       C  0.98128733  0.40250245  0.31099319     0.13890
C1292       C  0.01594602  0.38248755  0.26650116    -0.20470
C1293       C  0.99698622  0.35212642  0.21571754    -0.06990
C1294       C  0.93955939  0.33780848  0.22139240     0.13880
C1295       C  0.91715335  0.28982726  0.18579671    -0.23820
H1296       H  0.86718077  0.34614287  0.27746986     0.15160
H1297       H  0.05872593  0.38254394  0.27847933     0.15190
C1298       C  0.00120754  0.39971996  0.37177857    -0.23770
H1299       H  0.87142901  0.28527980  0.18869223     0.05400
H1300       H  0.93483667  0.25004487  0.19897623     0.08630
H1301       H  0.93013359  0.29342961  0.14203757     0.08630
H1302       H  0.97245184  0.37363292  0.39606235     0.08610
H1303       H  0.00477164  0.44043240  0.39314392     0.08610
H1304       H  0.04393762  0.38275568  0.37606407     0.05390
C1305       C  0.95898371  0.55545638  0.31907722    -0.20420
C1306       C  0.91200182  0.52743901  0.29941741    -0.06980
C1307       C  0.88529979  0.56304480  0.25887996     0.13890
C1308       C  0.91941860  0.58599537  0.21561638    -0.20470
C1309       C  0.97542498  0.60105072  0.22848883    -0.06990
C1310       C  0.98695252  0.59648130  0.28714753     0.13880
C1311       C  0.03506131  0.62660557  0.31294811    -0.23820
H1312       H  0.97678795  0.54140874  0.35628575     0.15160
H1313       H  0.90068518  0.59715242  0.17624315     0.15190
C1314       C  0.84224731  0.60182468  0.28317817    -0.23770
H1315       H  0.04640293  0.60893814  0.35247240     0.05400
H1316       H  0.02358195  0.66943722  0.31156391     0.08630
H1317       H  0.07507545  0.62868850  0.29385573     0.08630
H1318       H  0.80710728  0.57793120  0.30073355     0.08610
H1319       H  0.82702761  0.63187651  0.25221764     0.08610
H1320       H  0.86175755  0.62735856  0.31765859     0.05390
C1321       C  0.77713216  0.25926796  0.54137873    -0.20420
C1322       C  0.80626483  0.27116481  0.49335977    -0.06980
C1323       C  0.77455764  0.25861996  0.44350549     0.13890
C1324       C  0.73749309  0.21227966  0.44287486    -0.20470
C1325       C  0.73003485  0.18105866  0.49110389    -0.06990
C1326       C  0.73771268  0.21545873  0.54055032     0.13880
C1327       C  0.70035603  0.21506135  0.58917221    -0.23820
H1328       H  0.78790859  0.27992032  0.58025583     0.15160
H1329       H  0.71293727  0.20285676  0.40615870     0.15190
C1330       C  0.77146748  0.29753606  0.39535263    -0.23770
H1331       H  0.67757052  0.25541035  0.59148654     0.05400
H1332       H  0.72539458  0.21073076  0.62830626     0.08630
H1333       H  0.66911266  0.18165815  0.58476062     0.08630
H1334       H  0.78147979  0.27483336  0.35591384     0.08610
H1335       H  0.79946082  0.33420075  0.40157090     0.08610
H1336       H  0.72813140  0.31381107  0.39134829     0.05390
C1337       C  0.88743470  0.20464303  0.57347257    -0.20420
C1338       C  0.90261337  0.25768244  0.55166531    -0.06980
C1339       C  0.95323259  0.27678991  0.57886027     0.13890
C1340       C  0.98492705  0.24069880  0.61407734    -0.20470
C1341       C  0.97786552  0.18167046  0.61559587    -0.06990
C1342       C  0.92724111  0.16477247  0.59282470     0.13880
C1343       C  0.91242877  0.10560447  0.59183988    -0.23820
H1344       H  0.84452799  0.19221493  0.57596955     0.15160
H1345       H  0.01445687  0.26019836  0.64226308     0.15190
C1346       C  0.96793531  0.33704012  0.58551025    -0.23770
H1347       H  0.86877132  0.10563152  0.58203591     0.05400
H1348       H  0.91677444  0.08484476  0.63168341     0.08630
H1349       H  0.93538939  0.08269520  0.55904730     0.08630
H1350       H  0.92986651  0.36114182  0.58968272     0.08610
H1351       H  0.99419535  0.35279595  0.55224168     0.08610
H1352       H  0.99115479  0.34456726  0.62470004     0.05390
C1353       C  0.93881308  0.15151950  0.42204406    -0.20420
C1354       C  0.94970044  0.16557667  0.36824429    -0.06980
C1355       C  0.91103653  0.20878902  0.34943970     0.13890
C1356       C  0.89226858  0.25181066  0.38829433    -0.20470
C1357       C  0.89697247  0.24436665  0.44627062    -0.06990
C1358       C  0.90688584  0.18703674  0.45637359     0.13880
C1359       C  0.85850892  0.15553299  0.47086962    -0.23820
H1360       H  0.95382115  0.11228442  0.43802160     0.15160
H1361       H  0.87615280  0.29035788  0.37244119     0.15190
C1362       C  0.88695843  0.21031163  0.29198134    -0.23770
H1363       H  0.87485702  0.12408024  0.49685336     0.05400
H1364       H  0.83512491  0.14481497  0.43297949     0.08630
H1365       H  0.82869579  0.17530276  0.49530041     0.08630
H1366       H  0.90371088  0.17728909  0.26384183     0.08610
H1367       H  0.89474304  0.25218896  0.27756955     0.08610
H1368       H  0.84075302  0.20544614  0.29320786     0.05390
loop_ 
_geom_bond_atom_site_label_1 
_geom_bond_atom_site_label_2 
_geom_bond_distance 
_geom_bond_site_symmetry_2 
_ccdc_geom_bond_type 
C1           C18   1.626       .  S
C1         C1322   1.580       .  S
C1         C1338   1.655       .  S
C1         C1357   1.620       .  S
C2           C16   1.664       .  S
C2         C1274   1.543       .  S
C2         C1290   1.654       .  S
C2         C1306   1.660       .  S
C3           C15   1.643       .  S
C3         C1226   1.623       .  S
C3         C1242   1.684       .  S
C3         C1258   1.680       .  S
C4           C17   1.651       .  S
C4         C1178   1.554       .  S
C4         C1194   1.643       .  S
C4         C1210   1.669       .  S
O5          Ni13   2.008       .  S
O5           C15   1.293       .  A
O6          Ni13   2.008       .  S
O6           C16   1.293       .  A
O7          Ni13   1.975       .  S
O7           C17   1.289       .  A
O8          Ni13   1.999       .  S
O8           C18   1.289       .  A
O9          Ni14   1.985       .  S
O9           C18   1.299       .  A
O10         Ni14   2.010       .  S
O10          C17   1.296       .  A
O11         Ni14   2.020       .  S
O11          C16   1.296       .  A
O12         Ni14   2.014       .  S
O12          C15   1.304       .  A
Ni13        Ni14   2.323       .  S
C19          C35   1.662       .  S
C19        C1130   1.594       .  S
C19        C1149   1.688       .  S
C19        C1162   1.633       .  S
C20          C34   1.683       .  S
C20        C1082   1.565       .  S
C20        C1101   1.645       .  S
C20        C1117   1.622       .  S
C21          C33   1.711       .  S
C21        C1034   1.601       .  S
C21        C1050   1.661       .  S
C21        C1066   1.598       .  S
C22          C36   1.628       .  S
C22        C1002   1.712       .  S
C22        C1018   1.643       .  S
C22        C1181   1.602       .  S
O23         Ni31   2.049       .  S
O23          C33   1.306       .  A
O24         Ni31   2.007       .  S
O24          C34   1.296       .  A
O25         Ni31   2.034       .  S
O25          C35   1.300       .  A
O26         Ni31   2.011       .  S
O26          C36   1.301       .  A
O27         Ni32   1.996       .  S
O27          C36   1.292       .  A
O28         Ni32   2.013       .  S
O28          C35   1.307       .  A
O29         Ni32   2.035       .  S
O29          C34   1.303       .  A
O30         Ni32   2.059       .  S
O30          C33   1.312       .  A
Ni31        Ni32   2.330       .  S
C37          C53   1.663       .  S
C37         C957   1.613       .  S
C37         C970   1.609       .  S
C37         C986   1.626       .  S
C38          C51   1.672       .  S
C38         C906   1.555       .  S
C38         C922   1.585       .  S
C38         C938   1.696       .  S
C39          C52   1.670       .  S
C39         C874   1.627       .  S
C39         C890   1.630       .  S
C39        C1229   1.606       .  S
C40          C54   1.647       .  S
C40         C842   1.649       .  S
C40         C858   1.633       .  S
C40        C1037   1.581       .  S
O41         Ni49   2.035       .  S
O41          C51   1.302       .  A
O42         Ni49   2.015       .  S
O42          C52   1.300       .  A
O43         Ni49   2.016       .  S
O43          C53   1.301       .  A
O44         Ni49   2.015       .  S
O44          C54   1.305       .  A
O45         Ni50   2.015       .  S
O45          C54   1.297       .  A
O46         Ni50   2.007       .  S
O46          C53   1.292       .  A
O47         Ni50   2.053       .  S
O47          C52   1.309       .  A
O48         Ni50   2.032       .  S
O48          C51   1.307       .  A
Ni49        Ni50   2.334       .  S
C55          C70   1.663       .  S
C55         C813   1.576       .  S
C55         C826   1.665   1_565  S
C55        C1069   1.641       .  S
C56          C71   1.665       .  S
C56         C781   1.596       .  S
C56         C797   1.635   1_556  S
C56         C861   1.657       .  S
C57          C72   1.631       .  S
C57         C746   1.560       .  S
C57         C762   1.635       .  S
C57         C989   1.628   1_554  S
C58          C69   1.672       .  S
C58         C714   1.644       .  S
C58         C730   1.624   1_565  S
C58        C1114   1.659       .  S
O59         Ni67   2.018   1_554  S
O59          C69   1.294       .  A
O60         Ni67   2.025       .  S
O60          C70   1.309       .  A
O61         Ni67   1.999       .  S
O61          C71   1.293       .  A
O62         Ni67   1.967   1_544  S
O62          C72   1.292       .  A
O63         Ni68   2.024   1_544  S
O63          C72   1.301       .  A
O64         Ni68   2.037       .  S
O64          C71   1.307       .  A
O65         Ni68   2.037       .  S
O65          C70   1.300       .  A
O66         Ni68   2.014   1_554  S
O66          C69   1.294       .  A
Ni67        Ni68   2.330       .  S
C73          C88   1.637       .  S
C73         C682   1.569       .  S
C73         C698   1.614       .  S
C73        C1261   1.620   1_455  S
C74          C90   1.687   1_556  S
C74         C653   1.602   1_556  S
C74         C669   1.650   1_556  S
C74         C893   1.608       .  S
C75          C89   1.713       .  S
C75         C637   1.609       .  S
C75         C778   1.611       .  S
C75         C925   1.683   1_554  S
C76          C87   1.631       .  S
C76         C602   1.604       .  S
C76         C621   1.632       .  S
C76        C1309   1.639   1_455  S
O77         Ni85   2.025       .  S
O77          C87   1.300       .  A
O78         Ni85   1.986   1_556  S
O78          C88   1.291       .  A
O79         Ni85   2.046       .  S
O79          C89   1.304       .  A
O80         Ni85   2.041   1_655  S
O80          C90   1.303       .  A
O81         Ni86   2.033   1_655  S
O81          C90   1.300       .  A
O82         Ni86   2.049       .  S
O82          C89   1.308       .  A
O83         Ni86   1.986   1_556  S
O83          C88   1.294       .  A
O84         Ni86   1.987       .  S
O84          C87   1.296       .  A
Ni85        Ni86   2.326       .  S
C91         C108   1.642   1_556  S
C91         C589   1.654   1_556  S
C91         C650   1.528       .  S
C91         C845   1.617       .  S
C92         C106   1.635       .  S
C92         C554   1.559       .  S
C92         C570   1.635   1_565  S
C92        C1053   1.641       .  S
C93         C107   1.639       .  S
C93         C525   1.605       .  S
C93         C538   1.614       .  S
C93         C973   1.631   1_554  S
C94         C105   1.625       .  S
C94         C490   1.590       .  S
C94         C509   1.617   1_565  S
C94        C1098   1.640       .  S
O95        Ni103   2.006       .  S
O95         C105   1.307       .  A
O96        Ni103   2.020   1_556  S
O96         C106   1.299       .  A
O97        Ni103   2.006   1_545  S
O97         C107   1.298       .  A
O98        Ni103   2.009       .  S
O98         C108   1.292       .  A
O99        Ni104   2.020       .  S
O99         C108   1.306       .  A
O100       Ni104   1.987   1_545  S
O100        C107   1.292       .  A
O101       Ni104   1.972   1_556  S
O101        C106   1.283       .  A
O102       Ni104   1.970       .  S
O102        C105   1.283       .  A
Ni103      Ni104   2.338       .  S
C109        C123   1.633       .  S
C109        C461   1.547       .  S
C109        C474   1.621       .  S
C109        C634   1.662       .  S
C110        C125   1.637       .  S
C110        C445   1.590       .  S
C110        C541   1.606       .  S
C110        C765   1.635       .  S
C111        C126   1.664       .  S
C111        C586   1.639       .  S
C111        C794   1.634       .  S
C111       C1085   1.585       .  S
C112        C124   1.645       .  S
C112        C426   1.632       .  S
C112        C666   1.592       .  S
C112       C1277   1.573       .  S
O113       Ni121   1.986       .  S
O113        C123   1.288       .  A
O114       Ni121   2.011       .  S
O114        C124   1.302       .  A
O115       Ni121   2.030       .  S
O115        C125   1.300       .  A
O116       Ni121   2.040       .  S
O116        C126   1.299       .  A
O117       Ni122   2.012       .  S
O117        C126   1.306       .  A
O118       Ni122   1.994       .  S
O118        C125   1.299       .  A
O119       Ni122   1.998       .  S
O119        C124   1.289       .  A
O120       Ni122   2.001       .  S
O120        C123   1.291       .  A
Ni121      Ni122   2.333       .  S
C127        C144   1.680       .  S
C127        C429   1.654   1_556  S
C127        C522   1.583       .  S
C127        C877   1.623       .  S
C128        C142   1.694       .  S
C128        C394   1.575       .  S
C128        C410   1.689       .  S
C128       C1245   1.651   1_455  S
C129        C143   1.695       .  S
C129        C477   1.656   1_556  S
C129        C749   1.572       .  S
C129        C941   1.619       .  S
C130        C141   1.666       .  S
C130        C365   1.604       .  S
C130        C378   1.600       .  S
C130       C1293   1.692   1_455  S
O131       Ni139   2.009   1_554  S
O131        C141   1.290       .  A
O132       Ni139   2.030       .  S
O132        C142   1.308       .  A
O133       Ni139   2.030       .  S
O133        C143   1.305       .  A
O134       Ni139   2.024   1_655  S
O134        C144   1.302       .  A
O135       Ni140   2.040   1_655  S
O135        C144   1.304       .  A
O136       Ni140   2.068       .  S
O136        C143   1.311       .  A
O137       Ni140   2.062       .  S
O137        C142   1.306       .  A
O138       Ni140   2.006   1_554  S
O138        C141   1.290       .  A
Ni139      Ni140   2.314       .  S
C145        C162   1.699       .  S
C145        C346   1.598   1_565  S
C145        C557   1.625       .  S
C145       C1021   1.679       .  S
C146        C159   1.692       .  S
C146        C333   1.700       .  S
C146        C685   1.590       .  S
C146       C1213   1.630   1_455  S
C147        C160   1.671       .  S
C147        C317   1.610       .  S
C147        C397   1.558       .  S
C147       C1341   1.604   1_455  S
C148        C161   1.685       .  S
C148        C298   1.674   1_565  S
C148        C810   1.579       .  S
C148       C1146   1.629       .  S
O149       Ni157   2.057       .  S
O149        C159   1.312       .  A
O150       Ni157   2.018   1_545  S
O150        C160   1.299       .  A
O151       Ni157   2.028       .  S
O151        C161   1.296       .  A
O152       Ni157   2.034   1_655  S
O152        C162   1.302       .  A
O153       Ni158   2.058   1_655  S
O153        C162   1.308       .  A
O154       Ni158   2.044       .  S
O154        C161   1.311       .  A
O155       Ni158   2.004   1_545  S
O155        C160   1.298       .  A
O156       Ni158   2.025       .  S
O156        C159   1.299       .  A
Ni157      Ni158   2.321       .  S
C163        C179   1.693       .  S
C163        C266   1.585       .  S
C163        C282   1.607       .  S
C163        C314   1.678       .  S
C164        C178   1.690       .  S
C164        C381   1.674       .  S
C164        C458   1.580       .  S
C164        C618   1.659       .  S
C165        C177   1.659       .  S
C165        C413   1.601       .  S
C165        C701   1.680       .  S
C165        C909   1.598       .  S
C166        C180   1.678       .  S
C166        C250   1.669       .  S
C166        C330   1.638       .  S
C166       C1133   1.574       .  S
O167       Ni175   2.015       .  S
O167        C177   1.293       .  A
O168       Ni175   1.999       .  S
O168        C178   1.295       .  A
O169       Ni175   2.016       .  S
O169        C179   1.298       .  A
O170       Ni175   1.997       .  S
O170        C180   1.293       .  A
O171       Ni176   2.041       .  S
O171        C180   1.304       .  A
O172       Ni176   2.050       .  S
O172        C179   1.307       .  A
O173       Ni176   2.038       .  S
O173        C178   1.298       .  A
O174       Ni176   2.014       .  S
O174        C177   1.297       .  A
Ni175      Ni176   2.308       .  S
C181        C198   1.657       .  S
C181        C234   1.683       .  S
C181        C269   1.590       .  S
C181        C301   1.639       .  S
C182        C196   1.669       .  S
C182        C442   1.586       .  S
C182        C506   1.649       .  S
C182        C733   1.646       .  S
C183        C195   1.659       .  S
C183        C573   1.614       .  S
C183        C829   1.633       .  S
C183        C954   1.599       .  S
C184        C197   1.672       .  S
C184        C218   1.620       .  S
C184        C349   1.699       .  S
C184       C1325   1.595       .  S
O185       Ni193   2.044       .  S
O185        C195   1.307       .  A
O186       Ni193   2.059       .  S
O186        C196   1.310       .  A
O187       Ni193   1.994       .  S
O187        C197   1.282       .  A
O188       Ni193   1.989       .  S
O188        C198   1.288       .  A
O189       Ni194   2.030       .  S
O189        C198   1.300       .  A
O190       Ni194   2.036       .  S
O190        C197   1.311       .  A
O191       Ni194   1.999       .  S
O191        C196   1.296       .  A
O192       Ni194   2.011       .  S
O192        C195   1.298       .  A
Ni193      Ni194   2.322       .  S
C199        C214   1.675       .  S
C199        C253   1.666       .  S
C199        C605   1.583       .  S
C199       C1197   1.686   1_455  S
C200        C216   1.651       .  S
C200        C221   1.652   1_565  S
C200        C493   1.581       .  S
C200       C1005   1.619       .  S
C201        C215   1.681       .  S
C201        C237   1.629   1_565  S
C201        C717   1.578       .  S
C201       C1165   1.684       .  S
C202        C213   1.633       .  S
C202        C285   1.626       .  S
C202        C362   1.545       .  S
C202       C1354   1.617   1_455  S
O203       Ni211   1.970   1_545  S
O203        C213   1.288       .  A
O204       Ni211   2.015       .  S
O204        C214   1.291       .  A
O205       Ni211   2.022       .  S
O205        C215   1.305       .  A
O206       Ni211   2.010   1_655  S
O206        C216   1.295       .  A
O207       Ni212   2.005   1_655  S
O207        C216   1.303       .  A
O208       Ni212   2.040       .  S
O208        C215   1.297       .  A
O209       Ni212   2.028       .  S
O209        C214   1.309       .  A
O210       Ni212   2.041   1_545  S
O210        C213   1.307       .  A
Ni211      Ni212   2.330       .  S
C217        C218   1.438       .  A
C217        C222   1.449       .  A
C217        H224   1.063       .  S
C218        C219   1.411       .  A
C219        C226   1.526   1_545  S
C219        C220   1.402   1_545  A
C220        C221   1.453   1_565  A
C220        H225   1.056       .  S
C221        C222   1.436       .  A
C222        C223   1.488       .  S
C223        H227   1.084       .  S
C223        H228   1.105       .  S
C223        H229   1.104       .  S
C226        H230   1.082       .  S
C226        H231   1.103       .  S
C226        H232   1.096   1_565  S
C233        C234   1.442       .  A
C233        C238   1.398       .  A
C233        H240   1.057   1_545  S
C234        C235   1.463       .  A
C235        C242   1.533       .  S
C235        C236   1.460       .  A
C236        C237   1.458       .  A
C236        H241   1.083       .  S
C237        C238   1.391       .  A
C238        C239   1.508       .  S
C239        H243   1.101       .  S
C239        H244   1.088   1_545  S
C239        H245   1.101       .  S
C242        H246   1.105       .  S
C242        H247   1.096       .  S
C242        H248   1.108       .  S
C249        C250   1.432       .  A
C249        C254   1.466       .  A
C249        H256   1.058       .  S
C250        C251   1.417       .  A
C251        C258   1.489       .  S
C251        C252   1.456       .  A
C252        C253   1.449       .  A
C252        H257   1.056       .  S
C253        C254   1.429       .  A
C254        C255   1.546       .  S
C255        H259   1.097       .  S
C255        H260   1.102       .  S
C255        H261   1.089       .  S
C258        H262   1.101       .  S
C258        H263   1.085       .  S
C258        H264   1.082       .  S
C265        C266   1.443       .  A
C265        C270   1.454       .  A
C265        H272   1.073       .  S
C266        C267   1.422       .  A
C267        C274   1.513       .  S
C267        C268   1.346       .  A
C268        C269   1.370       .  A
C268        H273   1.068       .  S
C269        C270   1.441       .  A
C270        C271   1.500       .  S
C271        H275   1.111       .  S
C271        H276   1.108       .  S
C271        H277   1.111       .  S
C274        H278   1.075       .  S
C274        H279   1.063       .  S
C274        H280   1.084       .  S
C281        C282   1.432       .  A
C281        C286   1.459       .  A
C281        H288   1.074       .  S
C282        C283   1.390       .  A
C283        C290   1.471       .  S
C283        C284   1.393       .  A
C284        C285   1.412       .  A
C284        H289   1.059       .  S
C285        C286   1.463       .  A
C286        C287   1.525       .  S
C287        H291   1.104       .  S
C287        H292   1.099       .  S
C287        H293   1.108       .  S
C290        H294   1.098       .  S
C290        H295   1.087       .  S
C290        H296   1.096   1_455  S
C297        C298   1.442   1_565  A
C297        C302   1.419   1_565  A
C297        H304   1.023       .  S
C298        C299   1.420       .  A
C299        C306   1.496       .  S
C299        C300   1.456       .  A
C300        C301   1.457       .  A
C300        H305   1.082       .  S
C301        C302   1.396       .  A
C302        C303   1.539   1_545  S
C303        H307   1.109       .  S
C303        H308   1.095   1_565  S
C303        H309   1.104       .  S
C306        H310   1.102       .  S
C306        H311   1.094       .  S
C306        H312   1.109       .  S
C313        C314   1.428       .  A
C313        C318   1.392       .  A
C313        H320   1.048       .  S
C314        C315   1.397       .  A
C315        C322   1.453       .  S
C315        C316   1.458       .  A
C316        C317   1.452       .  A
C316        H321   1.073       .  S
C317        C318   1.409       .  A
C318        C319   1.506       .  S
C319        H323   1.108       .  S
C319        H324   1.105       .  S
C319        H325   1.104       .  S
C322        H326   1.094       .  S
C322        H327   1.109       .  S
C322        H328   1.079       .  S
C329        C330   1.444       .  A
C329        C334   1.476       .  A
C329        H336   1.081       .  S
C330        C331   1.379       .  A
C331        C338   1.491       .  S
C331        C332   1.400       .  A
C332        C333   1.423       .  A
C332        H337   1.047       .  S
C333        C334   1.444       .  A
C334        C335   1.478       .  S
C335        H339   1.109       .  S
C335        H340   1.093       .  S
C335        H341   1.089       .  S
C338        H342   1.097       .  S
C338        H343   1.083       .  S
C338        H344   1.107       .  S
C345        C346   1.373       .  A
C345        C350   1.411       .  A
C345        H352   1.088   1_545  S
C346        C347   1.434       .  A
C347        C354   1.469       .  S
C347        C348   1.451       .  A
C348        C349   1.432       .  A
C348        H353   1.062       .  S
C349        C350   1.509       .  A
C350        C351   1.512       .  S
C351        H355   1.049       .  S
C351        H356   1.114       .  S
C351        H357   1.097   1_545  S
C354        H358   1.100       .  S
C354        H359   1.091       .  S
C354        H360   1.111       .  S
C361        C362   1.417       .  A
C361        C366   1.448       .  A
C361        H368   1.079       .  S
C362        C363   1.410       .  A
C363        C370   1.502       .  S
C363        C364   1.332       .  A
C364        C365   1.371       .  A
C364        H369   1.047       .  S
C365        C366   1.469       .  A
C366        C367   1.500       .  S
C367        H371   1.111       .  S
C367        H372   1.109       .  S
C367        H373   1.109   1_455  S
C370        H374   1.062   1_455  S
C370        H375   1.091   1_455  S
C370        H376   1.099       .  S
C377        C378   1.454       .  A
C377        C382   1.460       .  A
C377        H384   1.080       .  S
C378        C379   1.400       .  A
C379        C386   1.513       .  S
C379        C380   1.381       .  A
C380        C381   1.433       .  A
C380        H385   1.049       .  S
C381        C382   1.429       .  A
C382        C383   1.495       .  S
C383        H387   1.109       .  S
C383        H388   1.110       .  S
C383        H389   1.102       .  S
C386        H390   1.109       .  S
C386        H391   1.106       .  S
C386        H392   1.106       .  S
C393        C394   1.393   1_655  A
C393        C398   1.405       .  A
C393        H400   1.084       .  S
C394        C395   1.412       .  A
C395        C402   1.506       .  S
C395        C396   1.405       .  A
C396        C397   1.402       .  A
C396        H401   1.083       .  S
C397        C398   1.444   1_455  A
C398        C399   1.492       .  S
C399        H403   1.112       .  S
C399        H404   1.103       .  S
C399        H405   1.101       .  S
C402        H406   1.111       .  S
C402        H407   1.105       .  S
C402        H408   1.108       .  S
C409        C410   1.445       .  A
C409        C414   1.418       .  A
C409        H416   1.031   1_455  S
C410        C411   1.462       .  A
C411        C418   1.485       .  S
C411        C412   1.451       .  A
C412        C413   1.437       .  A
C412        H417   1.084       .  S
C413        C414   1.408       .  A
C414        C415   1.517       .  S
C415        H419   1.098   1_455  S
C415        H420   1.103       .  S
C415        H421   1.096       .  S
C418        H422   1.109       .  S
C418        H423   1.087       .  S
C418        H424   1.108       .  S
C425        C426   1.370       .  A
C425        C430   1.404       .  A
C425        H432   1.080       .  S
C426        C427   1.445       .  A
C427        C434   1.485       .  S
C427        C428   1.443       .  A
C428        C429   1.398       .  A
C428        H433   1.053       .  S
C429        C430   1.425       .  A
C430        C431   1.399       .  S
C431        H435   1.091       .  S
C431        H436   1.060   1_554  S
C431        H437   1.097   1_554  S
C434        H438   1.102       .  S
C434        H439   1.059       .  S
C434        H440   1.110       .  S
C441        C442   1.419       .  A
C441        C446   1.404       .  A
C441        H448   1.061       .  S
C442        C443   1.411       .  A
C443        C450   1.495       .  S
C443        C444   1.419       .  A
C444        C445   1.405       .  A
C444        H449   1.070       .  S
C445        C446   1.420       .  A
C446        C447   1.503       .  S
C447        H451   1.110       .  S
C447        H452   1.105       .  S
C447        H453   1.108       .  S
C450        H454   1.105       .  S
C450        H455   1.110       .  S
C450        H456   1.110       .  S
C457        C458   1.384       .  A
C457        C462   1.334       .  A
C457        H464   1.056       .  S
C458        C459   1.458       .  A
C459        C466   1.496       .  S
C459        C460   1.454       .  A
C460        C461   1.436       .  A
C460        H465   1.078       .  S
C461        C462   1.406       .  A
C462        C463   1.520       .  S
C463        H467   1.071       .  S
C463        H468   1.054       .  S
C463        H469   1.104       .  S
C466        H470   1.108       .  S
C466        H471   1.109       .  S
C466        H472   1.111       .  S
C473        C474   1.443       .  A
C473        C478   1.456       .  A
C473        H480   1.083       .  S
C474        C475   1.392       .  A
C475        C482   1.521       .  S
C475        C476   1.408       .  A
C476        C477   1.442       .  A
C476        H481   1.069   1_554  S
C477        C478   1.449       .  A
C478        C479   1.508       .  S
C479        H483   1.104       .  S
C479        H484   1.095       .  S
C479        H485   1.110       .  S
C482        H486   1.085       .  S
C482        H487   1.093   1_554  S
C482        H488   1.104       .  S
C489        C490   1.422       .  A
C489        C494   1.388       .  A
C489        H496   1.063       .  S
C490        C491   1.431       .  A
C491        C498   1.466   1_565  S
C491        C492   1.408       .  A
C492        C493   1.390       .  A
C492        H497   1.075   1_565  S
C493        C494   1.396       .  A
C494        C495   1.484       .  S
C495        H499   1.111       .  S
C495        H500   1.107       .  S
C495        H501   1.102       .  S
C498        H502   1.091       .  S
C498        H503   1.110       .  S
C498        H504   1.107       .  S
C505        C506   1.380       .  A
C505        C510   1.423       .  A
C505        H512   1.064       .  S
C506        C507   1.464       .  A
C507        C514   1.503       .  S
C507        C508   1.449       .  A
C508        C509   1.410       .  A
C508        H513   1.082       .  S
C509        C510   1.434       .  A
C510        C511   1.467   1_545  S
C511        H515   1.060       .  S
C511        H516   1.061       .  S
C511        H517   1.077       .  S
C514        H518   1.108       .  S
C514        H519   1.085       .  S
C514        H520   1.109       .  S
C521        C522   1.400   1_554  A
C521        C526   1.407       .  A
C521        H528   1.084       .  S
C522        C523   1.419       .  A
C523        C530   1.507       .  S
C523        C524   1.432       .  A
C524        C525   1.431   1_556  A
C524        H529   1.081       .  S
C525        C526   1.428       .  A
C526        C527   1.474       .  S
C527        H531   1.105       .  S
C527        H532   1.100       .  S
C527        H533   1.111       .  S
C530        H534   1.110       .  S
C530        H535   1.104       .  S
C530        H536   1.111       .  S
C537        C538   1.432       .  A
C537        C542   1.432       .  A
C537        H544   1.052       .  S
C538        C539   1.433       .  A
C539        C546   1.498       .  S
C539        C540   1.423       .  A
C540        C541   1.420       .  A
C540        H545   1.076       .  S
C541        C542   1.404       .  A
C542        C543   1.472       .  S
C543        H547   1.101       .  S
C543        H548   1.106       .  S
C543        H549   1.075       .  S
C546        H550   1.106       .  S
C546        H551   1.074   1_554  S
C546        H552   1.084       .  S
C553        C554   1.432       .  A
C553        C558   1.452       .  A
C553        H560   1.075       .  S
C554        C555   1.415       .  A
C555        C562   1.548       .  S
C555        C556   1.343       .  A
C556        C557   1.390       .  A
C556        H561   1.034       .  S
C557        C558   1.451       .  A
C558        C559   1.497       .  S
C559        H563   1.111       .  S
C559        H564   1.104   1_565  S
C559        H565   1.108       .  S
C562        H566   1.090       .  S
C562        H567   1.074       .  S
C562        H568   1.093   1_565  S
C569        C570   1.405       .  A
C569        C574   1.401       .  A
C569        H576   1.041       .  S
C570        C571   1.469       .  A
C571        C578   1.521       .  S
C571        C572   1.456       .  A
C572        C573   1.429       .  A
C572        H577   1.073       .  S
C573        C574   1.415       .  A
C574        C575   1.475       .  S
C575        H579   1.088       .  S
C575        H580   1.114       .  S
C575        H581   1.083       .  S
C578        H582   1.098       .  S
C578        H583   1.105       .  S
C578        H584   1.100       .  S
C585        C586   1.403       .  A
C585        C590   1.441       .  A
C585        H592   1.073       .  S
C586        C587   1.456       .  A
C587        C594   1.490       .  S
C587        C588   1.415       .  A
C588        C589   1.377       .  A
C588        H593   1.077       .  S
C589        C590   1.476       .  A
C590        C591   1.519       .  S
C591        H595   1.111       .  S
C591        H596   1.108       .  S
C591        H597   1.098       .  S
C594        H598   1.086       .  S
C594        H599   1.088       .  S
C594        H600   1.109       .  S
C601        C602   1.428       .  A
C601        C606   1.416       .  A
C601        H608   1.060       .  S
C602        C603   1.429   1_455  A
C603        C610   1.505       .  S
C603        C604   1.410       .  A
C604        C605   1.406   1_655  A
C604        H609   1.063       .  S
C605        C606   1.413       .  A
C606        C607   1.508       .  S
C607        H611   1.110       .  S
C607        H612   1.110       .  S
C607        H613   1.106       .  S
C610        H614   1.110       .  S
C610        H615   1.104       .  S
C610        H616   1.110       .  S
C617        C618   1.445       .  A
C617        C622   1.465       .  A
C617        H624   1.079       .  S
C618        C619   1.389       .  A
C619        C626   1.424       .  S
C619        C620   1.430       .  A
C620        C621   1.401       .  A
C620        H625   1.082       .  S
C621        C622   1.420       .  A
C622        C623   1.456       .  S
C623        H627   1.094       .  S
C623        H628   1.108       .  S
C623        H629   1.109       .  S
C626        H630   1.105       .  S
C626        H631   1.080       .  S
C626        H632   1.049       .  S
C633        C634   1.409       .  A
C633        C638   1.390       .  A
C633        H640   1.004       .  S
C634        C635   1.437       .  A
C635        C642   1.513       .  S
C635        C636   1.469       .  A
C636        C637   1.447       .  A
C636        H641   1.069       .  S
C637        C638   1.419       .  A
C638        C639   1.522       .  S
C639        H643   1.111       .  S
C639        H644   1.105       .  S
C639        H645   1.106   1_554  S
C642        H646   1.096       .  S
C642        H647   1.079       .  S
C642        H648   1.107       .  S
C649        C650   1.410       .  A
C649        C654   1.437       .  A
C649        H656   1.079       .  S
C650        C651   1.432       .  A
C651        C658   1.568       .  S
C651        C652   1.338   1_556  A
C652        C653   1.388       .  A
C652        H657   1.063       .  S
C653        C654   1.453   1_554  A
C654        C655   1.491       .  S
C655        H659   1.111       .  S
C655        H660   1.095       .  S
C655        H661   1.109   1_556  S
C658        H662   1.093       .  S
C658        H663   1.098   1_556  S
C658        H664   1.097       .  S
C665        C666   1.354       .  A
C665        C670   1.375       .  A
C665        H672   1.076       .  S
C666        C667   1.440       .  A
C667        C674   1.501       .  S
C667        C668   1.446       .  A
C668        C669   1.430       .  A
C668        H673   1.082       .  S
C669        C670   1.481       .  A
C670        C671   1.511   1_554  S
C671        H675   1.112       .  S
C671        H676   1.094       .  S
C671        H677   1.038       .  S
C674        H678   1.094       .  S
C674        H679   1.105       .  S
C674        H680   1.106       .  S
C681        C682   1.413       .  A
C681        C686   1.401       .  A
C681        H688   1.082       .  S
C682        C683   1.423   1_455  A
C683        C690   1.489       .  S
C683        C684   1.422       .  A
C684        C685   1.397   1_655  A
C684        H689   1.077       .  S
C685        C686   1.411       .  A
C686        C687   1.502       .  S
C687        H691   1.112       .  S
C687        H692   1.105       .  S
C687        H693   1.110       .  S
C690        H694   1.109       .  S
C690        H695   1.103       .  S
C690        H696   1.107       .  S
C697        C698   1.362       .  A
C697        C702   1.427       .  A
C697        H704   1.083       .  S
C698        C699   1.425       .  A
C699        C706   1.418       .  S
C699        C700   1.441       .  A
C700        C701   1.385       .  A
C700        H705   1.069       .  S
C701        C702   1.480       .  A
C702        C703   1.476       .  S
C703        H707   1.074       .  S
C703        H708   1.106       .  S
C703        H709   1.026       .  S
C706        H710   1.072       .  S
C706        H711   1.072   1_455  S
C706        H712   1.107       .  S
C713        C714   1.369       .  A
C713        C718   1.354       .  A
C713        H720   1.065       .  S
C714        C715   1.468       .  A
C715        C722   1.491       .  S
C715        C716   1.459       .  A
C716        C717   1.418       .  A
C716        H721   1.080       .  S
C717        C718   1.435       .  A
C718        C719   1.535       .  S
C719        H723   1.089   1_565  S
C719        H724   1.094       .  S
C719        H725   1.084       .  S
C722        H726   1.109       .  S
C722        H727   1.088   1_565  S
C722        H728   1.111       .  S
C729        C730   1.449       .  A
C729        C734   1.477       .  A
C729        H736   1.082       .  S
C730        C731   1.414       .  A
C731        C738   1.511       .  S
C731        C732   1.407       .  A
C732        C733   1.409       .  A
C732        H737   1.013       .  S
C733        C734   1.416       .  A
C734        C735   1.494       .  S
C735        H739   1.082       .  S
C735        H740   1.093       .  S
C735        H741   1.105       .  S
C738        H742   1.103       .  S
C738        H743   1.106   1_545  S
C738        H744   1.100       .  S
C745        C746   1.406   1_556  A
C745        C750   1.401       .  A
C745        H752   1.072       .  S
C746        C747   1.416       .  A
C747        C754   1.488       .  S
C747        C748   1.413       .  A
C748        C749   1.392   1_554  A
C748        H753   1.081       .  S
C749        C750   1.419       .  A
C750        C751   1.492       .  S
C751        H755   1.100       .  S
C751        H756   1.107       .  S
C751        H757   1.097       .  S
C754        H758   1.108       .  S
C754        H759   1.110       .  S
C754        H760   1.111       .  S
C761        C762   1.386       .  A
C761        C766   1.425       .  A
C761        H768   1.075       .  S
C762        C763   1.451       .  A
C763        C770   1.512       .  S
C763        C764   1.439       .  A
C764        C765   1.388       .  A
C764        H769   1.066       .  S
C765        C766   1.454       .  A
C766        C767   1.481       .  S
C767        H771   1.057       .  S
C767        H772   1.075       .  S
C767        H773   1.100       .  S
C770        H774   1.111       .  S
C770        H775   1.089       .  S
C770        H776   1.108       .  S
C777        C778   1.416       .  A
C777        C782   1.435       .  A
C777        H784   1.080       .  S
C778        C779   1.439   1_554  A
C779        C786   1.509       .  S
C779        C780   1.416       .  A
C780        C781   1.408       .  A
C780        H785   1.083       .  S
C781        C782   1.429   1_556  A
C782        C783   1.507       .  S
C783        H787   1.108       .  S
C783        H788   1.110       .  S
C783        H789   1.108       .  S
C786        H790   1.104       .  S
C786        H791   1.112       .  S
C786        H792   1.110       .  S
C793        C794   1.414       .  A
C793        C798   1.441       .  A
C793        H800   1.080       .  S
C794        C795   1.400       .  A
C795        C802   1.431       .  S
C795        C796   1.445       .  A
C796        C797   1.428       .  A
C796        H801   1.058       .  S
C797        C798   1.383       .  A
C798        C799   1.439       .  S
C799        H803   1.109       .  S
C799        H804   1.094   1_554  S
C799        H805   1.031       .  S
C802        H806   1.100       .  S
C802        H807   1.104       .  S
C802        H808   1.072       .  S
C809        C810   1.427   1_545  A
C809        C814   1.403       .  A
C809        H816   1.060       .  S
C810        C811   1.417       .  A
C811        C818   1.470       .  S
C811        C812   1.408       .  A
C812        C813   1.384       .  A
C812        H817   1.076       .  S
C813        C814   1.409   1_565  A
C814        C815   1.498       .  S
C815        H819   1.108       .  S
C815        H820   1.103       .  S
C815        H821   1.108       .  S
C818        H822   1.100       .  S
C818        H823   1.107       .  S
C818        H824   1.104       .  S
C825        C826   1.390       .  A
C825        C830   1.465       .  A
C825        H832   1.065       .  S
C826        C827   1.450       .  A
C827        C834   1.461   1_545  S
C827        C828   1.434       .  A
C828        C829   1.388       .  A
C828        H833   1.060       .  S
C829        C830   1.440       .  A
C830        C831   1.525       .  S
C831        H835   1.106       .  S
C831        H836   1.111       .  S
C831        H837   1.100       .  S
C834        H838   1.063       .  S
C834        H839   1.070       .  S
C834        H840   1.088       .  S
C841        C842   1.439       .  A
C841        C846   1.460       .  A
C841        H848   1.061       .  S
C842        C843   1.414       .  A
C843        C850   1.437       .  S
C843        C844   1.418       .  A
C844        C845   1.342       .  A
C844        H849   1.069       .  S
C845        C846   1.444       .  A
C846        C847   1.502       .  S
C847        H851   1.109       .  S
C847        H852   1.103       .  S
C847        H853   1.108       .  S
C850        H854   1.092       .  S
C850        H855   1.089       .  S
C850        H856   1.108       .  S
C857        C858   1.387       .  A
C857        C862   1.429       .  A
C857        H864   1.080       .  S
C858        C859   1.452       .  A
C859        C866   1.500       .  S
C859        C860   1.462       .  A
C860        C861   1.408       .  A
C860        H865   1.074       .  S
C861        C862   1.421       .  A
C862        C863   1.408       .  S
C863        H867   1.098   1_556  S
C863        H868   1.086       .  S
C863        H869   1.083   1_556  S
C866        H870   1.098       .  S
C866        H871   1.095       .  S
C866        H872   1.110       .  S
C873        C874   1.407       .  A
C873        C878   1.397       .  A
C873        H880   1.023       .  S
C874        C875   1.394       .  A
C875        C882   1.503       .  S
C875        C876   1.456       .  A
C876        C877   1.466       .  A
C876        H881   1.066       .  S
C877        C878   1.422       .  A
C878        C879   1.529       .  S
C879        H883   1.100   1_556  S
C879        H884   1.106       .  S
C879        H885   1.098   1_556  S
C882        H886   1.106       .  S
C882        H887   1.088       .  S
C882        H888   1.109       .  S
C889        C890   1.415       .  A
C889        C894   1.469       .  A
C889        H896   1.077       .  S
C890        C891   1.416       .  A
C891        C898   1.428       .  S
C891        C892   1.412       .  A
C892        C893   1.382       .  A
C892        H897   1.072       .  S
C893        C894   1.462       .  A
C894        C895   1.481       .  S
C895        H899   1.102       .  S
C895        H900   1.102       .  S
C895        H901   1.094       .  S
C898        H902   1.059       .  S
C898        H903   1.068       .  S
C898        H904   1.100       .  S
C905        C906   1.428       .  A
C905        C910   1.459       .  A
C905        H912   1.081       .  S
C906        C907   1.420       .  A
C907        C914   1.548       .  S
C907        C908   1.342       .  A
C908        C909   1.359       .  A
C908        H913   1.026       .  S
C909        C910   1.468       .  A
C910        C911   1.501       .  S
C911        H915   1.111       .  S
C911        H916   1.110       .  S
C911        H917   1.109       .  S
C914        H918   1.091       .  S
C914        H919   1.080       .  S
C914        H920   1.090       .  S
C921        C922   1.362       .  A
C921        C926   1.378       .  A
C921        H928   1.068       .  S
C922        C923   1.467       .  A
C923        C930   1.517       .  S
C923        C924   1.444       .  A
C924        C925   1.418       .  A
C924        H929   1.061       .  S
C925        C926   1.486       .  A
C926        C927   1.515   1_556  S
C927        H931   1.068       .  S
C927        H932   1.077       .  S
C927        H933   1.114       .  S
C930        H934   1.105       .  S
C930        H935   1.107       .  S
C930        H936   1.098       .  S
C937        C938   1.418       .  A
C937        C942   1.403       .  A
C937        H944   1.078       .  S
C938        C939   1.398       .  A
C939        C946   1.448       .  S
C939        C940   1.465       .  A
C940        C941   1.466       .  A
C940        H945   1.062       .  S
C941        C942   1.380       .  A
C942        C943   1.477       .  S
C943        H947   1.073       .  S
C943        H948   1.107       .  S
C943        H949   1.097       .  S
C946        H950   1.087       .  S
C946        H951   1.092       .  S
C946        H952   1.064       .  S
C953        C954   1.398       .  A
C953        C958   1.422       .  A
C953        H960   1.080       .  S
C954        C955   1.423       .  A
C955        C962   1.480       .  S
C955        C956   1.409       .  A
C956        C957   1.408       .  A
C956        H961   1.079       .  S
C957        C958   1.450       .  A
C958        C959   1.502       .  S
C959        H963   1.108       .  S
C959        H964   1.112       .  S
C959        H965   1.083       .  S
C962        H966   1.098       .  S
C962        H967   1.107       .  S
C962        H968   1.111       .  S
C969        C970   1.419       .  A
C969        C974   1.428       .  A
C969        H976   1.026       .  S
C970        C971   1.422       .  A
C971        C978   1.535       .  S
C971        C972   1.405       .  A
C972        C973   1.424       .  A
C972        H977   1.036   1_556  S
C973        C974   1.378       .  A
C974        C975   1.479       .  S
C975        H979   1.043       .  S
C975        H980   1.101       .  S
C975        H981   1.106       .  S
C978        H982   1.087       .  S
C978        H983   1.102       .  S
C978        H984   1.107   1_556  S
C985        C986   1.385       .  A
C985        C990   1.416       .  A
C985        H992   1.066       .  S
C986        C987   1.450       .  A
C987        C994   1.500       .  S
C987        C988   1.447       .  A
C988        C989   1.417       .  A
C988        H993   1.077       .  S
C989        C990   1.429       .  A
C990        C991   1.451   1_556  S
C991        H995   1.068   1_554  S
C991        H996   1.095       .  S
C991        H997   1.094       .  S
C994        H998   1.075       .  S
C994        H999   1.092       .  S
C994       H1000   1.084       .  S
C1001      C1002   1.449       .  A
C1001      C1006   1.406       .  A
C1001      H1008   1.062       .  S
C1002      C1003   1.394       .  A
C1003      C1010   1.456       .  S
C1003      C1004   1.440       .  A
C1004      C1005   1.458       .  A
C1004      H1009   1.041       .  S
C1005      C1006   1.410       .  A
C1006      C1007   1.508       .  S
C1007      H1011   1.089       .  S
C1007      H1012   1.105       .  S
C1007      H1013   1.087       .  S
C1010      H1014   1.100       .  S
C1010      H1015   1.103       .  S
C1010      H1016   1.103       .  S
C1017      C1018   1.350       .  A
C1017      C1022   1.372       .  A
C1017      H1024   1.066       .  S
C1018      C1019   1.484       .  A
C1019      C1026   1.524       .  S
C1019      C1020   1.458       .  A
C1020      C1021   1.429       .  A
C1020      H1025   1.078       .  S
C1021      C1022   1.485       .  A
C1022      C1023   1.503       .  S
C1023      H1027   1.062   1_565  S
C1023      H1028   1.067   1_565  S
C1023      H1029   1.112       .  S
C1026      H1030   1.096       .  S
C1026      H1031   1.109       .  S
C1026      H1032   1.110       .  S
C1033      C1034   1.428       .  A
C1033      C1038   1.397       .  A
C1033      H1040   1.061       .  S
C1034      C1035   1.431       .  A
C1035      C1042   1.498       .  S
C1035      C1036   1.426       .  A
C1036      C1037   1.409       .  A
C1036      H1041   1.079       .  S
C1037      C1038   1.401       .  A
C1038      C1039   1.506       .  S
C1039      H1043   1.110       .  S
C1039      H1044   1.109       .  S
C1039      H1045   1.111       .  S
C1042      H1046   1.095       .  S
C1042      H1047   1.107       .  S
C1042      H1048   1.110       .  S
C1049      C1050   1.440       .  A
C1049      C1054   1.414       .  A
C1049      H1056   1.056       .  S
C1050      C1051   1.371       .  A
C1051      C1058   1.468       .  S
C1051      C1052   1.454       .  A
C1052      C1053   1.456       .  A
C1052      H1057   1.080       .  S
C1053      C1054   1.408       .  A
C1054      C1055   1.528       .  S
C1055      H1059   1.105       .  S
C1055      H1060   1.091       .  S
C1055      H1061   1.092       .  S
C1058      H1062   1.105       .  S
C1058      H1063   1.094       .  S
C1058      H1064   1.064       .  S
C1065      C1066   1.429       .  A
C1065      C1070   1.443       .  A
C1065      H1072   1.059       .  S
C1066      C1067   1.428       .  A
C1067      C1074   1.512       .  S
C1067      C1068   1.423       .  A
C1068      C1069   1.422       .  A
C1068      H1073   1.062       .  S
C1069      C1070   1.442       .  A
C1070      C1071   1.482       .  S
C1071      H1075   1.074       .  S
C1071      H1076   1.101       .  S
C1071      H1077   1.108       .  S
C1074      H1078   1.095       .  S
C1074      H1079   1.102       .  S
C1074      H1080   1.107       .  S
C1081      C1082   1.396       .  A
C1081      C1086   1.418       .  A
C1081      H1088   1.082       .  S
C1082      C1083   1.415       .  A
C1083      C1090   1.465       .  S
C1083      C1084   1.395       .  A
C1084      C1085   1.403       .  A
C1084      H1089   1.082       .  S
C1085      C1086   1.432       .  A
C1086      C1087   1.508       .  S
C1087      H1091   1.111       .  S
C1087      H1092   1.111       .  S
C1087      H1093   1.096       .  S
C1090      H1094   1.111       .  S
C1090      H1095   1.100       .  S
C1090      H1096   1.109       .  S
C1097      C1098   1.420       .  A
C1097      C1102   1.418       .  A
C1097      H1104   1.045       .  S
C1098      C1099   1.388       .  A
C1099      C1106   1.472       .  S
C1099      C1100   1.457       .  A
C1100      C1101   1.445       .  A
C1100      H1105   1.067       .  S
C1101      C1102   1.424       .  A
C1102      C1103   1.514       .  S
C1103      H1107   1.093       .  S
C1103      H1108   1.095       .  S
C1103      H1109   1.081       .  S
C1106      H1110   1.098       .  S
C1106      H1111   1.094       .  S
C1106      H1112   1.072       .  S
C1113      C1114   1.405       .  A
C1113      C1118   1.446       .  A
C1113      H1120   1.084       .  S
C1114      C1115   1.481       .  A
C1115      C1122   1.480       .  S
C1115      C1116   1.385       .  A
C1116      C1117   1.338       .  A
C1116      H1121   1.055       .  S
C1117      C1118   1.449       .  A
C1118      C1119   1.494       .  S
C1119      H1123   1.109       .  S
C1119      H1124   1.104       .  S
C1119      H1125   1.074       .  S
C1122      H1126   1.057   1_565  S
C1122      H1127   1.110       .  S
C1122      H1128   1.082   1_565  S
C1129      C1130   1.395       .  A
C1129      C1134   1.394       .  A
C1129      H1136   1.061       .  S
C1130      C1131   1.437       .  A
C1131      C1138   1.498       .  S
C1131      C1132   1.420       .  A
C1132      C1133   1.417       .  A
C1132      H1137   1.065       .  S
C1133      C1134   1.425       .  A
C1134      C1135   1.481       .  S
C1135      H1139   1.063       .  S
C1135      H1140   1.095       .  S
C1135      H1141   1.053       .  S
C1138      H1142   1.109       .  S
C1138      H1143   1.104       .  S
C1138      H1144   1.111       .  S
C1145      C1146   1.438       .  A
C1145      C1150   1.470       .  A
C1145      H1152   1.071       .  S
C1146      C1147   1.383       .  A
C1147      C1154   1.489       .  S
C1147      C1148   1.432       .  A
C1148      C1149   1.439       .  A
C1148      H1153   1.063       .  S
C1149      C1150   1.435       .  A
C1150      C1151   1.455       .  S
C1151      H1155   1.101       .  S
C1151      H1156   1.089       .  S
C1151      H1157   1.088       .  S
C1154      H1158   1.101       .  S
C1154      H1159   1.109       .  S
C1154      H1160   1.080       .  S
C1161      C1162   1.415       .  A
C1161      C1166   1.446       .  A
C1161      H1168   1.069       .  S
C1162      C1163   1.400       .  A
C1163      C1170   1.459       .  S
C1163      C1164   1.458       .  A
C1164      C1165   1.445       .  A
C1164      H1169   1.073       .  S
C1165      C1166   1.393       .  A
C1166      C1167   1.417       .  S
C1167      H1171   1.053       .  S
C1167      H1172   1.098       .  S
C1167      H1173   1.079       .  S
C1170      H1174   1.093       .  S
C1170      H1175   1.099       .  S
C1170      H1176   1.088       .  S
C1177      C1178   1.454       .  A
C1177      C1182   1.459       .  A
C1177      H1184   1.075       .  S
C1178      C1179   1.401       .  A
C1179      C1186   1.525       .  S
C1179      C1180   1.289       .  A
C1180      C1181   1.332       .  A
C1180      H1185   0.995       .  S
C1181      C1182   1.430       .  A
C1182      C1183   1.492       .  S
C1183      H1187   1.110       .  S
C1183      H1188   1.096       .  S
C1183      H1189   1.109       .  S
C1186      H1190   1.086       .  S
C1186      H1191   1.095       .  S
C1186      H1192   1.113       .  S
C1193      C1194   1.437       .  A
C1193      C1198   1.453       .  A
C1193      H1200   1.079       .  S
C1194      C1195   1.387       .  A
C1195      C1202   1.478       .  S
C1195      C1196   1.419       .  A
C1196      C1197   1.434       .  A
C1196      H1201   1.047   1_655  S
C1197      C1198   1.439       .  A
C1198      C1199   1.468       .  S
C1199      H1203   1.102       .  S
C1199      H1204   1.108       .  S
C1199      H1205   1.099       .  S
C1202      H1206   1.084       .  S
C1202      H1207   1.067       .  S
C1202      H1208   1.098   1_655  S
C1209      C1210   1.431       .  A
C1209      C1214   1.485       .  A
C1209      H1216   1.069       .  S
C1210      C1211   1.423       .  A
C1211      C1218   1.397   1_655  S
C1211      C1212   1.429       .  A
C1212      C1213   1.350       .  A
C1212      H1217   1.062       .  S
C1213      C1214   1.461       .  A
C1214      C1215   1.508       .  S
C1215      H1219   1.094       .  S
C1215      H1220   1.108       .  S
C1215      H1221   1.089       .  S
C1218      H1222   1.051       .  S
C1218      H1223   1.066   1_455  S
C1218      H1224   1.066       .  S
C1225      C1226   1.375       .  A
C1225      C1230   1.396       .  A
C1225      H1232   1.056       .  S
C1226      C1227   1.426       .  A
C1227      C1234   1.509       .  S
C1227      C1228   1.435       .  A
C1228      C1229   1.435       .  A
C1228      H1233   1.082       .  S
C1229      C1230   1.467       .  A
C1230      C1231   1.508       .  S
C1231      H1235   1.090       .  S
C1231      H1236   1.099       .  S
C1231      H1237   1.092       .  S
C1234      H1238   1.110       .  S
C1234      H1239   1.104       .  S
C1234      H1240   1.110       .  S
C1241      C1242   1.424       .  A
C1241      C1246   1.434       .  A
C1241      H1248   1.046       .  S
C1242      C1243   1.429       .  A
C1243      C1250   1.487       .  S
C1243      C1244   1.451       .  A
C1244      C1245   1.442       .  A
C1244      H1249   1.064       .  S
C1245      C1246   1.400       .  A
C1246      C1247   1.474       .  S
C1247      H1251   1.091       .  S
C1247      H1252   1.086       .  S
C1247      H1253   1.104       .  S
C1250      H1254   1.105       .  S
C1250      H1255   1.097       .  S
C1250      H1256   1.084       .  S
C1257      C1258   1.428       .  A
C1257      C1262   1.418       .  A
C1257      H1264   1.044       .  S
C1258      C1259   1.449       .  A
C1259      C1266   1.479       .  S
C1259      C1260   1.460       .  A
C1260      C1261   1.430       .  A
C1260      H1265   1.061       .  S
C1261      C1262   1.393       .  A
C1262      C1263   1.501       .  S
C1263      H1267   1.102       .  S
C1263      H1268   1.072   1_655  S
C1263      H1269   1.081       .  S
C1266      H1270   1.097       .  S
C1266      H1271   1.104       .  S
C1266      H1272   1.093       .  S
C1273      C1274   1.417       .  A
C1273      C1278   1.424       .  A
C1273      H1280   1.071       .  S
C1274      C1275   1.437       .  A
C1275      C1282   1.547       .  S
C1275      C1276   1.342       .  A
C1276      C1277   1.413       .  A
C1276      H1281   1.085       .  S
C1277      C1278   1.432       .  A
C1278      C1279   1.500       .  S
C1279      H1283   1.111       .  S
C1279      H1284   1.109       .  S
C1279      H1285   1.108       .  S
C1282      H1286   1.099       .  S
C1282      H1287   1.109       .  S
C1282      H1288   1.105       .  S
C1289      C1290   1.447       .  A
C1289      C1294   1.471       .  A
C1289      H1296   1.072       .  S
C1290      C1291   1.371       .  A
C1291      C1298   1.529   1_655  S
C1291      C1292   1.437   1_655  A
C1292      C1293   1.468   1_455  A
C1292      H1297   1.056       .  S
C1293      C1294   1.422       .  A
C1294      C1295   1.506       .  S
C1295      H1299   1.100       .  S
C1295      H1300   1.094       .  S
C1295      H1301   1.106       .  S
C1298      H1302   1.109   1_455  S
C1298      H1303   1.093       .  S
C1298      H1304   1.103       .  S
C1305      C1306   1.375       .  A
C1305      C1310   1.431       .  A
C1305      H1312   1.045       .  S
C1306      C1307   1.449       .  A
C1307      C1314   1.503       .  S
C1307      C1308   1.449       .  A
C1308      C1309   1.411       .  A
C1308      H1313   1.078       .  S
C1309      C1310   1.436       .  A
C1310      C1311   1.473   1_655  S
C1311      H1315   1.078       .  S
C1311      H1316   1.063       .  S
C1311      H1317   1.068       .  S
C1314      H1318   1.109       .  S
C1314      H1319   1.104       .  S
C1314      H1320   1.111       .  S
C1321      C1322   1.392       .  A
C1321      C1326   1.407       .  A
C1321      H1328   1.072       .  S
C1322      C1323   1.429       .  A
C1323      C1330   1.503       .  S
C1323      C1324   1.417       .  A
C1324      C1325   1.407       .  A
C1324      H1329   1.069       .  S
C1325      C1326   1.437       .  A
C1326      C1327   1.482       .  S
C1327      H1331   1.111       .  S
C1327      H1332   1.111       .  S
C1327      H1333   1.094       .  S
C1330      H1334   1.110       .  S
C1330      H1335   1.107       .  S
C1330      H1336   1.110       .  S
C1337      C1338   1.433       .  A
C1337      C1342   1.429       .  A
C1337      H1344   1.069       .  S
C1338      C1339   1.431       .  A
C1339      C1346   1.488       .  S
C1339      C1340   1.432       .  A
C1340      C1341   1.424       .  A
C1340      H1345   1.067   1_655  S
C1341      C1342   1.373       .  A
C1342      C1343   1.458       .  S
C1343      H1347   1.064       .  S
C1343      H1348   1.092       .  S
C1343      H1349   1.103       .  S
C1346      H1350   1.083       .  S
C1346      H1351   1.097       .  S
C1346      H1352   1.094       .  S
C1353      C1354   1.371       .  A
C1353      C1358   1.405       .  A
C1353      H1360   1.083       .  S
C1354      C1355   1.463       .  A
C1355      C1362   1.486       .  S
C1355      C1356   1.450       .  A
C1356      C1357   1.410       .  A
C1356      H1361   1.076       .  S
C1357      C1358   1.419       .  A
C1358      C1359   1.430       .  S
C1359      H1363   1.060       .  S
C1359      H1364   1.083       .  S
C1359      H1365   1.038       .  S
C1362      H1366   1.108       .  S
C1362      H1367   1.085       .  S
C1362      H1368   1.110       .  S
