geometry optimzed in LAMMPS
_audit_creation_date              2020-12-01 
_audit_creation_method            'lammps2cif' 
_symmetry_space_group_name_H-M    'P1' 
_symmetry_Int_Tables_number       1 
_symmetry_cell_setting            triclinic 
loop_ 
_symmetry_equiv_pos_as_xyz 
  x,y,z 
_cell_length_a                    54.96049897 
_cell_length_b                    54.89762195212408 
_cell_length_c                    29.39864767389791 
_cell_angle_alpha                 90.97749510649079 
_cell_angle_beta                  89.96801514601552 
_cell_angle_gamma                 120.07541037709066 
loop_ 
_atom_site_label 
_atom_site_type_symbol 
_atom_site_fract_x 
_atom_site_fract_y 
_atom_site_fract_z 
_atom_site_charge 
C1          C  0.46577570  0.71485902  0.20482397     0.80400
N2          N  0.46094900  0.71209133  0.25052398    -0.77900
C3          C  0.45558238  0.73057669  0.27377296     0.82800
N4          N  0.45468032  0.75137579  0.25096373    -0.77900
C5          C  0.45956240  0.75434729  0.20570817     0.82900
N6          N  0.46536899  0.73622909  0.18282373    -0.79600
C7          C  0.46108124  0.71068415  0.67682766     0.80400
N8          N  0.45720023  0.70775436  0.63105327    -0.77900
C9          C  0.45638006  0.72799158  0.60642447     0.82800
N10         N  0.45900451  0.75127462  0.62818481    -0.77900
C11         C  0.46300367  0.75452914  0.67412056     0.82900
N12         N  0.46426523  0.73424795  0.69827908    -0.79600
C13         C  0.22034323  0.76257027  0.67721452     0.80400
N14         N  0.22014298  0.75959155  0.63119819    -0.77900
C15         C  0.19729040  0.73860317  0.60915978     0.82800
N16         N  0.17464217  0.72018357  0.63375822    -0.77900
C17         C  0.17460640  0.72299200  0.67990290     0.82900
N18         N  0.19744793  0.74434631  0.70129385    -0.79600
C19         C  0.21741792  0.77041285  0.20776252     0.80400
N20         N  0.19356341  0.75060862  0.18679829    -0.77900
C21         C  0.17379202  0.72846391  0.21007711     0.82800
N22         N  0.17777245  0.72629543  0.25513904    -0.77900
C23         C  0.20146002  0.74629802  0.27685714     0.82900
N24         N  0.22136773  0.76822591  0.25286197    -0.79600
C25         C  0.18943165  0.47033909  0.20743632     0.80400
N26         N  0.19119194  0.47506022  0.25324593    -0.77900
C27         C  0.21494490  0.48076329  0.27641906     0.82800
N28         N  0.23695303  0.48204471  0.25349220    -0.77900
C29         C  0.23538039  0.47731275  0.20794111     0.82900
N30         N  0.21148456  0.47123441  0.18504747    -0.79600
C31         C  0.18055035  0.45979699  0.67620818     0.80400
N32         N  0.18239634  0.46616794  0.63152004    -0.77900
C33         C  0.20399199  0.46824015  0.60617801     0.82800
N34         N  0.22406373  0.46421207  0.62599600    -0.77900
C35         C  0.22203015  0.45749910  0.67069574     0.82900
N36         N  0.20019670  0.45519492  0.69538289    -0.79600
C37         C  0.74063925  0.23811293  0.68055142     0.80400
N38         N  0.73800285  0.24146314  0.63525160    -0.77900
C39         C  0.71482888  0.22203529  0.61161516     0.82800
N40         N  0.69428780  0.19975578  0.63366449    -0.77900
C41         C  0.69671029  0.19621434  0.67853278     0.82900
N42         N  0.72001899  0.21530248  0.70187510    -0.79600
C43         C  0.74484525  0.24908883  0.21317610     0.80400
N44         N  0.74196665  0.25128231  0.25852418    -0.77900
C45         C  0.71945848  0.23106541  0.28068703     0.82800
N46         N  0.69926090  0.20847040  0.25678654    -0.77900
C47         C  0.70201370  0.20613200  0.21104490     0.82900
N48         N  0.72495108  0.22638703  0.18956649    -0.79600
C49         C  0.70036560  0.50172076  0.20826608     0.80400
N50         N  0.69957554  0.49989924  0.25417302    -0.77900
C51         C  0.72098083  0.50033726  0.27777417     0.82800
N52         N  0.74335813  0.50215374  0.25490210    -0.77900
C53         C  0.74441345  0.50408750  0.20871033     0.82900
N54         N  0.72295797  0.50407635  0.18563644    -0.79600
C55         C  0.70591938  0.50784261  0.67719622     0.80400
N56         N  0.72776973  0.50983287  0.70158360    -0.77900
C57         C  0.74830566  0.50710053  0.68092606     0.82800
N58         N  0.74726532  0.50290321  0.63516659    -0.77900
C59         C  0.72575522  0.50139050  0.61013381     0.82900
N60         N  0.70488935  0.50359735  0.63136200    -0.79600
C61         C  0.43632306  0.19631234  0.67565321     0.80400
N62         N  0.43311479  0.21670949  0.69655778    -0.77900
C63         C  0.43481993  0.23837731  0.67271573     0.82800
N64         N  0.43937590  0.23944691  0.62728587    -0.77900
C65         C  0.44211415  0.21890209  0.60555724     0.82900
N66         N  0.44076887  0.19737177  0.62994001    -0.79600
C67         C  0.42347496  0.19777549  0.20626104     0.80400
N68         N  0.42885739  0.20106514  0.25173770    -0.77900
C69         C  0.42956738  0.22304494  0.27501610     0.82800
N70         N  0.42547275  0.24209423  0.25223223    -0.77900
C71         C  0.42002147  0.23878772  0.20674239     0.82900
N72         N  0.41887054  0.21653737  0.18417256    -0.79600
N73         N  0.47567862  0.52997086  0.85484047    -0.06000
N74         N  0.46731730  0.54351681  0.82829788    -0.58100
N75         N  0.52582914  0.51500312  0.88098466    -0.05600
N76         N  0.55165254  0.52074989  0.87104723    -0.60200
N77         N  0.50805420  0.49809158  0.84962897    -0.05200
N78         N  0.52115529  0.49203602  0.81783932    -0.58100
N79         N  0.49280000  0.54696050  0.88683348    -0.04900
N80         N  0.49640040  0.57252202  0.88269736    -0.60600
C81         C  0.48032911  0.56996455  0.84600647     0.96200
C82         C  0.54823895  0.50615980  0.83156056     0.96000
N83         N  0.50973010  0.49556199  0.01918005    -0.06100
N84         N  0.52378053  0.48842796  0.04717049    -0.58700
N85         N  0.49404267  0.54569063  0.99440068    -0.04300
N86         N  0.49856188  0.57122373  0.00495973    -0.59900
N87         N  0.47749017  0.52758579  0.02463454    -0.06200
N88         N  0.47059842  0.54018259  0.05634819    -0.58900
N89         N  0.52662254  0.51302835  0.98847549    -0.03900
N90         N  0.55252103  0.51790607  0.99470123    -0.60000
Mn91       Mn  0.51081377  0.53116590  0.93770719     1.18400
C92         C  0.55038076  0.50240144  0.03139961     0.98300
C93         C  0.48371072  0.56729500  0.04377552     0.99000
N94         N  0.45123294  0.44057626  0.84736423    -0.06200
N95         N  0.45668744  0.42707772  0.81508924    -0.62500
N96         N  0.40182062  0.45483460  0.88042018    -0.05000
N97         N  0.37566883  0.44755709  0.86920288    -0.63200
N98         N  0.41939212  0.47250221  0.85063945    -0.05700
N99         N  0.40585543  0.47761639  0.81879462    -0.62800
N100        N  0.43427850  0.42285281  0.87776020    -0.04600
N101        N  0.42791438  0.39686266  0.86678075    -0.63500
Mn102      Mn  0.46370903  0.48537525  0.84974210     1.10700
C103        C  0.44216189  0.39992510  0.82771520     0.99500
C104        C  0.37871918  0.46215688  0.83077569     0.99600
N105        N  0.42029102  0.47093144  0.02105871    -0.05700
N106        N  0.40698491  0.47806656  0.05104203    -0.61100
N107        N  0.43439326  0.42141292  0.98597933    -0.05000
N108        N  0.42689937  0.39506282  0.99540099    -0.57800
N109        N  0.45205049  0.43865852  0.01720343    -0.06300
N110        N  0.45691867  0.42464488  0.04825328    -0.60700
N111        N  0.40289503  0.45459064  0.98874515    -0.05300
N112        N  0.37736894  0.45039671  0.99599688    -0.57800
Mn113      Mn  0.46496495  0.48313663  0.02154461     1.20200
Mn114      Mn  0.41747553  0.43755257  0.93331717     1.10100
Cl115      Cl  0.46424294  0.48426483  0.93557807    -0.85800
C116        C  0.38030151  0.46516415  0.03494066     0.96500
C117        C  0.44136820  0.39760023  0.03424730     0.96300
N118        N  0.99413512  0.52373483  0.03273072    -0.06000
N119        N  0.01401174  0.53772008  0.06340931    -0.58100
N120        N  0.92897135  0.50662577  0.00239753    -0.05600
N121        N  0.90845696  0.51173807  0.01247585    -0.60200
N122        N  0.93005121  0.48972217  0.03251972    -0.05200
N123        N  0.91060474  0.48317514  0.06371853    -0.58100
N124        N  0.99378715  0.54094600  0.00245710    -0.04900
N125        N  0.01360680  0.56712082  0.01192411    -0.60600
C126        C  0.02604625  0.56464429  0.04993337     0.96200
C127        C  0.89717894  0.49685405  0.05073102     0.96000
N128        N  0.92967639  0.49057911  0.86263088    -0.06100
N129        N  0.90982134  0.48381384  0.83187301    -0.58700
N130        N  0.99375400  0.54224721  0.89431523    -0.04300
N131        N  0.01296245  0.56863748  0.88532664    -0.59900
N132        N  0.99379200  0.52512041  0.86249890    -0.06200
N133        N  0.01264566  0.53929131  0.83130852    -0.58900
N134        N  0.92864467  0.50718761  0.89440225    -0.03900
N135        N  0.90779653  0.51199906  0.88585595    -0.60000
Mn136      Mn  0.96126335  0.52515113  0.94850306     1.18400
C137        C  0.89625169  0.49711361  0.84678599     0.98300
C138        C  0.02463585  0.56633508  0.84588443     0.99000
N139        N  0.93233711  0.43366943  0.02858057    -0.06200
N140        N  0.91202051  0.41922285  0.05748966    -0.62500
N141        N  0.99765454  0.45138276  0.99847663    -0.05000
N142        N  0.01837957  0.44644185  0.00778080    -0.63200
N143        N  0.99634229  0.46786294  0.03022311    -0.05700
N144        N  0.01582495  0.47438421  0.06159087    -0.62800
N145        N  0.93283385  0.41698481  0.99639138    -0.04600
N146        N  0.91262178  0.39075638  0.00252664    -0.63500
Mn147      Mn  0.96318763  0.47872325  0.03202369     1.10700
C148        C  0.89989292  0.39259630  0.04076376     0.99500
C149        C  0.02951506  0.46109448  0.04726379     0.99600
N150        N  0.99625433  0.46942262  0.86058122    -0.05700
N151        N  0.01652342  0.47734037  0.83071623    -0.61100
N152        N  0.93238096  0.41743494  0.88913440    -0.05000
N153        N  0.91189578  0.39138988  0.87981530    -0.57800
N154        N  0.93205774  0.43490980  0.85940824    -0.06300
N155        N  0.91170431  0.42133052  0.82931898    -0.60700
N156        N  0.99751522  0.45250336  0.89043193    -0.05300
N157        N  0.01890564  0.44859033  0.88141361    -0.57800
Mn158      Mn  0.96295421  0.47996202  0.86039994     1.20200
Mn159      Mn  0.96521002  0.43364419  0.94349256     1.10100
Cl160      Cl  0.96317492  0.47939226  0.94613362    -0.85800
C161        C  0.03052151  0.46436477  0.84412734     0.96500
C162        C  0.89920200  0.39429568  0.84232853     0.96300
N163        N  0.47119244  0.95070699  0.03360223    -0.06000
N164        N  0.46300138  0.92944587  0.06152913    -0.58100
N165        N  0.52204031  0.01532926  0.00386265    -0.05600
N166        N  0.54789456  0.03617657  0.01267684    -0.60200
N167        N  0.50453349  0.01538150  0.03431948    -0.05200
N168        N  0.51786999  0.03597289  0.06435694    -0.58100
N169        N  0.48836011  0.95023156  0.00290217    -0.04900
N170        N  0.49220262  0.92865860  0.00913142    -0.60600
C171        C  0.47628615  0.91591613  0.04574380     0.96200
C172        C  0.54480296  0.04884130  0.05053443     0.96000
N173        N  0.50601734  0.01328573  0.86391165    -0.06100
N174        N  0.52071075  0.03296787  0.83415873    -0.58700
N175        N  0.48905324  0.94865801  0.89613327    -0.04300
N176        N  0.49383702  0.92754753  0.88918360    -0.59900
N177        N  0.47242607  0.94875125  0.86402533    -0.06200
N178        N  0.46576178  0.92796112  0.83444818    -0.58900
N179        N  0.52259336  0.01343801  0.89633263    -0.03900
N180        N  0.54887719  0.03319231  0.88938091    -0.60000
Mn181      Mn  0.50638150  0.98198248  0.94991215     1.18400
C182        C  0.54733997  0.04521860  0.85059443     0.98300
C183        C  0.47914213  0.91484595  0.85058322     0.99000
N184        N  0.44842579  0.01682093  0.03227723    -0.06200
N185        N  0.45438455  0.03671913  0.06322104    -0.62500
N186        N  0.39810153  0.95255184  0.00038066    -0.05000
N187        N  0.37189295  0.93291435  0.00904537    -0.63200
N188        N  0.41523435  0.95280784  0.03184798    -0.05700
N189        N  0.40128514  0.93371505  0.06253855    -0.62800
N190        N  0.43196334  0.01737516  0.00031406    -0.04600
N191        N  0.42641743  0.03781750  0.00893103    -0.63500
Mn192      Mn  0.45987498  0.98389686  0.03409858     1.10700
C193        C  0.44070838  0.04973606  0.04817425     0.99500
C194        C  0.37440670  0.92137402  0.04792956     0.99600
N195        N  0.41553026  0.95000892  0.86206440    -0.05700
N196        N  0.40124741  0.92857986  0.83351639    -0.61100
N197        N  0.43272480  0.01610533  0.89206294    -0.05000
N198        N  0.42783488  0.03675629  0.88239475    -0.57800
N199        N  0.44941280  0.01457394  0.86143236    -0.06300
N200        N  0.45608025  0.03387133  0.83037727    -0.60700
N201        N  0.39871760  0.95096826  0.89306158    -0.05300
N202        N  0.37271889  0.93005785  0.88648849    -0.57800
Mn203      Mn  0.46080609  0.98162101  0.86155383     1.20200
Mn204      Mn  0.41454640  0.98436400  0.94628240     1.10100
Cl205      Cl  0.46039752  0.98300308  0.94791666    -0.85800
C206        C  0.37461686  0.91629242  0.84926571     0.96500
C207        C  0.44268755  0.04765033  0.84386387     0.96300
C208        C  0.41394584  0.28776585  0.12240790     0.16100
C209        C  0.41109343  0.30042767  0.08329219    -0.32900
C210        C  0.42307585  0.32977055  0.08437096     0.20500
C211        C  0.43709131  0.34564951  0.12283435     0.02700
C212        C  0.43939163  0.33295412  0.16217186    -0.22700
C213        C  0.42756294  0.30370533  0.16102013     0.11900
S214        S  0.40332346  0.25292999  0.12650532    -0.06300
C215        C  0.41741615  0.25997840  0.18076580    -0.09800
C216        C  0.42922333  0.28780612  0.19493418    -0.26400
S217        S  0.45120009  0.38090993  0.11718630    -0.03600
C218        C  0.43786717  0.37435239  0.06255260    -0.17000
C219        C  0.42326475  0.34619595  0.04950419    -0.15000
H220        H  0.40064286  0.28804486  0.05301035     0.20300
H221        H  0.45051484  0.34542541  0.19203269     0.16400
H222        H  0.43992647  0.29623838  0.22721617     0.18900
H223        H  0.41348741  0.33825200  0.01647766     0.12200
C224        C  0.42135259  0.14196970  0.12389278     0.16100
C225        C  0.41787747  0.12427813  0.08654822    -0.32900
C226        C  0.42846208  0.10589449  0.09060253     0.20500
C227        C  0.44209516  0.10534872  0.12995567     0.02700
C228        C  0.44538778  0.12288544  0.16736912    -0.22700
C229        C  0.43458566  0.14105982  0.16347124     0.11900
S230        S  0.41058420  0.16616468  0.12540552    -0.06300
C231        C  0.42374049  0.17488182  0.18016406    -0.09800
C232        C  0.43582590  0.15976017  0.19607706    -0.26400
S233        S  0.45367046  0.08181433  0.12817165    -0.03600
C234        C  0.43970370  0.07230943  0.07404919    -0.17000
C235        C  0.42691828  0.08683331  0.05832340    -0.15000
H236        H  0.40742743  0.12484986  0.05569164     0.20300
H237        H  0.45590994  0.12237685  0.19818407     0.16400
H238        H  0.44556646  0.16274008  0.22928065     0.18900
H239        H  0.41694974  0.08353262  0.02525521     0.12200
C240        C  0.43883827  0.23816519  0.40383782     0.16100
C241        C  0.43998357  0.24832424  0.44824465    -0.32900
C242        C  0.44298560  0.23339942  0.48393354     0.20500
C243        C  0.44507212  0.20955611  0.47595873     0.02700
C244        C  0.44428496  0.19957189  0.43140390    -0.22700
C245        C  0.44093876  0.21433908  0.39565671     0.11900
S246        S  0.43380480  0.25249508  0.35619329    -0.06300
C247        C  0.43435113  0.22602257  0.32468293    -0.09800
C248        C  0.43846348  0.20731015  0.35022671    -0.26400
S249        S  0.44700608  0.19366186  0.52433447    -0.03600
C250        C  0.44466831  0.21929615  0.55554113    -0.17000
C251        C  0.44297863  0.23919763  0.52935829    -0.15000
H252        H  0.43796353  0.26670895  0.45477780     0.20300
H253        H  0.44554162  0.18075117  0.42494258     0.16400
H254        H  0.43908399  0.18921526  0.33640349     0.18900
H255        H  0.44081477  0.25649956  0.54283365     0.12200
C256        C  0.42440609  0.28945379  0.74913366     0.16100
C257        C  0.41889320  0.30294336  0.78516063    -0.32900
C258        C  0.42916663  0.33189996  0.78181812     0.20500
C259        C  0.44400697  0.34672153  0.74404342     0.02700
C260        C  0.44894081  0.33309748  0.70751828    -0.22700
C261        C  0.43889127  0.30418140  0.71105995     0.11900
S262        S  0.41582037  0.25501397  0.74855034    -0.06300
C263        C  0.43183079  0.26046610  0.69639548    -0.09800
C264        C  0.44287683  0.28751868  0.68028727    -0.26400
S265        S  0.45590722  0.38195382  0.74747132    -0.03600
C266        C  0.44066643  0.37663239  0.80027586    -0.17000
C267        C  0.42699634  0.34895823  0.81414503    -0.15000
H268        H  0.40775292  0.29151669  0.81505135     0.20300
H269        H  0.46071321  0.34466656  0.67814385     0.16400
H270        H  0.45419155  0.29486289  0.64867313     0.18900
H271        H  0.41640760  0.34178777  0.84636927     0.12200
C272        C  0.44473257  0.10001437  0.75750777     0.16100
C273        C  0.44777512  0.11555231  0.71848211    -0.32900
C274        C  0.44067905  0.13670964  0.72164127     0.20500
C275        C  0.43104391  0.14219019  0.76198007     0.02700
C276        C  0.42760726  0.12636195  0.80090266    -0.22700
C277        C  0.43462538  0.10510406  0.79768561     0.11900
S278        S  0.45292134  0.07402238  0.76059024    -0.06300
C279        C  0.44221195  0.06952706  0.81638836    -0.09800
C280        C  0.43290584  0.08744673  0.83169903    -0.26400
S281        S  0.42473573  0.16952343  0.75938039    -0.03600
C282        C  0.43500085  0.17352354  0.70322536    -0.17000
C283        C  0.44277872  0.15446650  0.68763922    -0.15000
H284        H  0.45559875  0.11149278  0.68711961     0.20300
H285        H  0.42004366  0.13060540  0.83238959     0.16400
H286        H  0.42548506  0.08764775  0.86576402     0.18900
H287        H  0.45016072  0.15402151  0.65363528     0.12200
C288        C  0.59903511  0.50014867  0.74930988     0.16100
C289        C  0.61162904  0.49379733  0.71306152    -0.32900
C290        C  0.64053367  0.50362709  0.71637503     0.20500
C291        C  0.65611904  0.51903949  0.75415004     0.02700
C292        C  0.64362109  0.52577097  0.78999465    -0.22700
C293        C  0.61475182  0.51592775  0.78673682     0.11900
S294        S  0.56414291  0.48930733  0.75256980    -0.06300
C295        C  0.57084412  0.50630301  0.80480552    -0.09800
C296        C  0.59868900  0.51968767  0.81867682    -0.26400
S297        S  0.69048098  0.52770031  0.75314825    -0.03600
C298        C  0.68396791  0.51067889  0.70102736    -0.17000
C299        C  0.65652443  0.49900774  0.68537671    -0.15000
H300        H  0.59936303  0.48139988  0.68389786     0.20300
H301        H  0.65579129  0.53775408  0.81951194     0.16400
H302        H  0.60667044  0.53124519  0.85052944     0.18900
H303        H  0.64854988  0.48708227  0.65381994     0.12200
C304        C  0.80352455  0.51263655  0.76633607     0.16100
C305        C  0.82022108  0.51648092  0.80482084    -0.32900
C306        C  0.83989520  0.50739851  0.80166091     0.20500
C307        C  0.84269320  0.49499802  0.76197094     0.02700
C308        C  0.82635966  0.49158796  0.72336382    -0.22700
C309        C  0.80679279  0.50071703  0.72648206     0.11900
S310        S  0.77753958  0.52093043  0.76381737    -0.06300
C311        C  0.77122877  0.50839375  0.70839075    -0.09800
C312        C  0.78853565  0.49851441  0.69292012    -0.26400
S313        S  0.86709033  0.48469872  0.76497056    -0.03600
C314        C  0.87403149  0.49762731  0.82005307    -0.17000
C315        C  0.85804694  0.50913602  0.83526144    -0.15000
H316        H  0.81776946  0.52583859  0.83595270     0.20300
H317        H  0.82861303  0.48196863  0.69237127     0.16400
H318        H  0.78728251  0.48945398  0.65937810     0.18900
H319        H  0.85965316  0.51826129  0.86885309     0.12200
C320        C  0.63227083  0.49452148  0.15977940     0.16100
C321        C  0.60490659  0.48943490  0.15278489    -0.32900
C322        C  0.59838448  0.49583307  0.11018299     0.20500
C323        C  0.61825365  0.50701449  0.07605961     0.02700
C324        C  0.64556366  0.51172541  0.08285388    -0.22700
C325        C  0.65204958  0.50513726  0.12544348     0.11900
S326        S  0.64439232  0.48882119  0.20948585    -0.06300
C327        C  0.67642248  0.50047552  0.18371359    -0.09800
C328        C  0.67743965  0.50837926  0.13887292    -0.26400
S329        S  0.60638908  0.51452430  0.02750141    -0.03600
C330        C  0.57427717  0.50211843  0.05336147    -0.17000
C331        C  0.57304129  0.49270362  0.09718311    -0.15000
H332        H  0.58942178  0.48106199  0.17954229     0.20300
H333        H  0.66113248  0.52036827  0.05626603     0.16400
H334        H  0.69582836  0.51638347  0.11749047     0.18900
H335        H  0.55472835  0.48457192  0.11877352     0.12200
C336        C  0.73726215  0.49767797  0.48185499     0.16100
C337        C  0.74781839  0.49748652  0.43845694    -0.32900
C338        C  0.73259435  0.49824340  0.40073830     0.20500
C339        C  0.70792129  0.49902992  0.40612929     0.02700
C340        C  0.69739407  0.49922539  0.44943051    -0.22700
C341        C  0.71263798  0.49856669  0.48706594     0.11900
S342        S  0.75290424  0.49755346  0.53190228    -0.06300
C343        C  0.72606757  0.49889984  0.56016231    -0.09800
C344        C  0.70605915  0.49920221  0.53187417    -0.26400
S345        S  0.69251775  0.49996402  0.35650144    -0.03600
C346        C  0.71960347  0.49938332  0.32783037    -0.17000
C347        C  0.73948307  0.49849858  0.35574604    -0.15000
H348        H  0.76713896  0.49696799  0.43429861     0.20300
H349        H  0.67821950  0.50002763  0.45360246     0.16400
H350        H  0.68795345  0.50038499  0.54343414     0.18900
H351        H  0.75795241  0.49813565  0.34382943     0.12200
C352        C  0.80190653  0.51016474  0.12765344     0.16100
C353        C  0.81924704  0.51403231  0.09029269    -0.32900
C354        C  0.83959788  0.50595771  0.09471210     0.20500
C355        C  0.84250336  0.49443831  0.13456085     0.02700
C356        C  0.82546569  0.49100681  0.17224320    -0.22700
C357        C  0.80515647  0.49918946  0.16785114     0.11900
S358        S  0.77510131  0.51733954  0.12810573    -0.06300
C359        C  0.76827715  0.50571871  0.18324182    -0.09800
C360        C  0.78610245  0.49689989  0.20015468    -0.26400
S361        S  0.86781379  0.48512635  0.13252271    -0.03600
C362        C  0.87482618  0.49728203  0.07766082    -0.17000
C363        C  0.85825286  0.50784091  0.06200782    -0.15000
H364        H  0.81674871  0.52264839  0.05892278     0.20300
H365        H  0.82773052  0.48206257  0.20342236     0.16400
H366        H  0.78465013  0.48847926  0.23373975     0.18900
H367        H  0.85966725  0.51627739  0.02845290     0.12200
C368        C  0.59580474  0.10744179  0.13185190     0.16100
C369        C  0.60842884  0.12586990  0.16901221    -0.32900
C370        C  0.63708534  0.14568694  0.16618579     0.20500
C371        C  0.65247460  0.14734318  0.12777705     0.02700
C372        C  0.63988146  0.12867875  0.09065119    -0.22700
C373        C  0.61119507  0.10859300  0.09369589     0.11900
S374        S  0.56129177  0.08212971  0.12906919    -0.06300
C375        C  0.56754905  0.07250314  0.07622116    -0.09800
C376        C  0.59504660  0.08838269  0.06152467    -0.26400
S377        S  0.68676052  0.17364859  0.13052096    -0.03600
C378        C  0.68032370  0.18216219  0.18425859    -0.17000
C379        C  0.65299015  0.16541746  0.19887532    -0.15000
H380        H  0.59639676  0.12481661  0.19886232     0.20300
H381        H  0.65188532  0.12981166  0.06072743     0.16400
H382        H  0.60274087  0.08533716  0.02923567     0.18900
H383        H  0.64502222  0.16793318  0.23126845     0.12200
C384        C  0.83725930  0.32538308  0.08536252     0.16100
C385        C  0.81409676  0.29848854  0.09186342    -0.35600
C386        C  0.80023581  0.29342786  0.13367439     0.20500
C387        C  0.80927365  0.31406151  0.16764944     0.02700
C388        C  0.83225039  0.34089681  0.16107621    -0.22700
C389        C  0.84581405  0.34605072  0.11918688     0.11900
S390        S  0.85696971  0.33605644  0.03711208    -0.06300
C391        C  0.87643185  0.36871042  0.06283840    -0.09800
C392        C  0.86816054  0.37096533  0.10635157    -0.26400
S393        S  0.79002293  0.30389534  0.21606890    -0.03600
C394        C  0.76918203  0.27157662  0.19011951    -0.17000
C395        C  0.77702175  0.26892515  0.14633161    -0.15000
H396        H  0.80709358  0.28231232  0.06546658     0.20300
H397        H  0.83915728  0.35712671  0.18738412     0.16400
H398        H  0.87804040  0.38986865  0.12756160     0.18900
H399        H  0.76635653  0.25012746  0.12501428     0.12200
C400        C  0.61674037  0.10409565  0.80375260     0.16100
C401        C  0.64468151  0.12493253  0.79595494    -0.32900
C402        C  0.65026024  0.14052862  0.75612975     0.20500
C403        C  0.62903099  0.13526969  0.72521351     0.02700
C404        C  0.60117770  0.11458260  0.73308204    -0.22700
C405        C  0.59555758  0.09929116  0.77305902     0.11900
S406        S  0.60538419  0.08299278  0.85009701    -0.06300
C407        C  0.57179238  0.06790580  0.82793175    -0.09800
C408        C  0.56972946  0.07860944  0.78679953    -0.26400
S409        S  0.63986106  0.15608097  0.67880584    -0.03600
C410        C  0.67333549  0.17254190  0.70153589    -0.17000
C411        C  0.67584571  0.16213427  0.74281967    -0.15000
H412        H  0.66127329  0.12894246  0.81998684     0.20300
H413        H  0.58455902  0.11068097  0.70916923     0.16400
H414        H  0.55035086  0.07160003  0.76789979     0.18900
H415        H  0.69526605  0.16993390  0.76195127     0.12200
C416        C  0.69831236  0.21502287  0.48359238     0.16100
C417        C  0.68741549  0.20508944  0.43974802    -0.32900
C418        C  0.70329131  0.22085910  0.40281009     0.20500
C419        C  0.72858298  0.24574390  0.40941133     0.02700
C420        C  0.73932069  0.25583347  0.45325856    -0.22700
C421        C  0.72376164  0.23974151  0.49015930     0.11900
S422        S  0.68321498  0.19786813  0.53241821    -0.06300
C423        C  0.71173450  0.22394042  0.56215779    -0.09800
C424        C  0.73156973  0.24505726  0.53524916    -0.26400
S425        S  0.74534685  0.26119361  0.36046400    -0.03600
C426        C  0.71829784  0.23360360  0.33054132    -0.17000
C427        C  0.69718990  0.21378381  0.35752506    -0.15000
H428        H  0.66781902  0.18547610  0.43463345     0.20300
H429        H  0.75936199  0.27497106  0.45831906     0.16400
H430        H  0.75100836  0.26284866  0.54778735     0.18900
H431        H  0.67885270  0.19483583  0.34481892     0.12200
C432        C  0.80025380  0.28676938  0.76353972     0.16100
C433        C  0.81899270  0.29908749  0.80052401    -0.32900
C434        C  0.83934109  0.32778821  0.79809523     0.20500
C435        C  0.84065456  0.34341593  0.76062432     0.02700
C436        C  0.82215487  0.33107674  0.72363104    -0.22700
C437        C  0.80207473  0.30243044  0.72585100     0.11900
S438        S  0.77357403  0.25256363  0.76018403    -0.06300
C439        C  0.76507428  0.25939576  0.70719193    -0.09800
C440        C  0.78216521  0.28681855  0.69326754    -0.26400
S441        S  0.86615857  0.37789768  0.76407725    -0.03600
C442        C  0.87567747  0.37141099  0.81633523    -0.17000
C443        C  0.85960477  0.34377683  0.83030818    -0.15000
H444        H  0.81768734  0.28687582  0.82992140     0.20300
H445        H  0.82332418  0.34333926  0.69437127     0.16400
H446        H  0.77971989  0.29509625  0.66148326     0.18900
H447        H  0.86247021  0.33590420  0.86219867     0.12200
C448        C  0.32756329  0.46348508  0.74426388     0.16100
C449        C  0.31507179  0.46893781  0.70726534    -0.32900
C450        C  0.28616855  0.45909559  0.70936270     0.20500
C451        C  0.27041538  0.44419671  0.74643406     0.02700
C452        C  0.28278124  0.43816629  0.78288775    -0.22700
C453        C  0.31172986  0.44833861  0.78110833     0.11900
S454        S  0.36258397  0.47544448  0.74968789    -0.06300
C455        C  0.35584156  0.45996709  0.80219493    -0.09800
C456        C  0.32785067  0.44601604  0.81442900    -0.26400
S457        S  0.23625502  0.43610438  0.74458131    -0.03600
C458        C  0.24319407  0.45302821  0.69336997    -0.17000
C459        C  0.27051995  0.46392213  0.67833507    -0.15000
H460        H  0.32750032  0.48108918  0.67878846     0.20300
H461        H  0.27053156  0.42685571  0.81207837     0.16400
H462        H  0.31985245  0.43535299  0.84628486     0.18900
H463        H  0.27879635  0.47589460  0.64763061     0.12200
C464        C  0.12527689  0.45287505  0.76204591     0.16100
C465        C  0.10783173  0.44748378  0.79976412    -0.32900
C466        C  0.08850684  0.45702341  0.79842651     0.20500
C467        C  0.08688219  0.47150100  0.76137471     0.02700
C468        C  0.10412965  0.47668284  0.72363395    -0.22700
C469        C  0.12319140  0.46690930  0.72476934     0.11900
S470        S  0.15045236  0.44356931  0.75723848    -0.06300
C471        C  0.15788913  0.45843788  0.70423447    -0.09800
C472        C  0.14169153  0.46996115  0.69129511    -0.26400
S473        S  0.06232698  0.48150230  0.76596905    -0.03600
C474        C  0.05373165  0.46560615  0.81802045    -0.17000
C475        C  0.06934800  0.45347032  0.83124162    -0.15000
H476        H  0.10924716  0.43635137  0.82879179     0.20300
H477        H  0.10270450  0.48780407  0.69458814     0.16400
H478        H  0.14373144  0.48051026  0.65952006     0.18900
H479        H  0.06663811  0.44246783  0.86273860     0.12200
C480        C  0.19395967  0.47589764  0.47929582     0.16100
C481        C  0.18314031  0.47498182  0.43574496    -0.32900
C482        C  0.20109407  0.48030031  0.39872271     0.20500
C483        C  0.22871594  0.48671128  0.40491157     0.02700
C484        C  0.23957472  0.48779740  0.44844609    -0.22700
C485        C  0.22147809  0.48194974  0.48535741     0.11900
S486        S  0.17518261  0.46871170  0.52828217    -0.06300
C487        C  0.20454153  0.47332601  0.55714583    -0.09800
C488        C  0.22767661  0.48044563  0.52998919    -0.26400
S489        S  0.24675617  0.49120007  0.35575680    -0.03600
C490        C  0.21664724  0.48387486  0.32632019    -0.17000
C491        C  0.19405325  0.47878129  0.35360307    -0.15000
H492        H  0.16148715  0.46968765  0.43085742     0.20300
H493        H  0.26098001  0.49227006  0.45322330     0.16400
H494        H  0.24777469  0.48385070  0.54211683     0.18900
H495        H  0.17332986  0.47322961  0.34112961     0.12200
C496        C  0.31468660  0.46492189  0.07909090     0.16100
C497        C  0.28794800  0.46160203  0.08527872    -0.32900
C498        C  0.28250495  0.47049110  0.12704966     0.20500
C499        C  0.30275994  0.48217504  0.16123272     0.02700
C500        C  0.32965123  0.48585693  0.15484124    -0.22700
C501        C  0.33508524  0.47695465  0.11301943     0.11900
S502        S  0.32507763  0.45462677  0.03136893    -0.06300
C503        C  0.35731201  0.46688593  0.05721873    -0.09800
C504        C  0.35971913  0.47830835  0.10050931    -0.26400
S505        S  0.29157157  0.49048013  0.21010079    -0.03600
C506        C  0.25928995  0.47817523  0.18407724    -0.17000
C507        C  0.25757578  0.46835885  0.13982183    -0.15000
H508        H  0.27196357  0.45218338  0.05887567     0.20300
H509        H  0.34551991  0.49493803  0.18147468     0.16400
H510        H  0.37837717  0.48683896  0.12185039     0.18900
H511        H  0.23890377  0.45954089  0.11848221     0.12200
C512        C  0.08567250  0.46763636  0.13149244     0.16100
C513        C  0.10358763  0.47376688  0.16906583    -0.32900
C514        C  0.12494718  0.46704081  0.16550825     0.20500
C515        C  0.12831281  0.45467424  0.12628491     0.02700
C516        C  0.10996953  0.44797626  0.08894742    -0.22700
C517        C  0.08861148  0.45482886  0.09242810     0.11900
S518        S  0.05954674  0.47560723  0.12860732    -0.06300
C519        C  0.05218537  0.46137554  0.07426506    -0.09800
C520        C  0.06919501  0.45093043  0.05939123    -0.26400
S521        S  0.15679581  0.45004835  0.12771383    -0.03600
C522        C  0.16410589  0.46481423  0.18178826    -0.17000
C523        C  0.14517769  0.47256208  0.19769458    -0.15000
H524        H  0.10134122  0.48390646  0.19942348     0.20300
H525        H  0.11262423  0.43844069  0.05820012     0.16400
H526        H  0.06774812  0.44148940  0.02613074     0.18900
H527        H  0.14674900  0.48268698  0.23037972     0.12200
C528        C  0.07965260  0.61883729  0.13349141     0.16100
C529        C  0.09657636  0.63295449  0.17135683    -0.32900
C530        C  0.11451524  0.66203607  0.16843286     0.20500
C531        C  0.11562446  0.67646435  0.12947924     0.02700
C532        C  0.09833568  0.66240246  0.09179641    -0.22700
C533        C  0.08035228  0.63326756  0.09475690     0.11900
S534        S  0.05700809  0.58352333  0.13024852    -0.06300
C535        C  0.04799247  0.58824760  0.07643569    -0.09800
C536        C  0.06205076  0.61575411  0.06177201    -0.26400
S537        S  0.14033695  0.71132360  0.13150638    -0.03600
C538        C  0.14923661  0.70632456  0.18539144    -0.17000
C539        C  0.13347008  0.67914978  0.20093302    -0.15000
H540        H  0.09608302  0.62168309  0.20155471     0.20300
H541        H  0.09919926  0.67358857  0.06128170     0.16400
H542        H  0.05896198  0.62253877  0.02896763     0.18900
H543        H  0.13668508  0.67198647  0.23329406     0.12200
C544        C  0.26651466  0.82654431  0.12438877     0.16100
C545        C  0.27910856  0.84380408  0.08689357    -0.32900
C546        C  0.30759725  0.86445375  0.09095229     0.20500
C547        C  0.32272882  0.86758276  0.13054058     0.02700
C548        C  0.31009440  0.85060112  0.16802444    -0.22700
C549        C  0.28170918  0.83010174  0.16404433     0.11900
S550        S  0.23252340  0.79972813  0.12609972    -0.06300
C551        C  0.23890059  0.79355123  0.18098244    -0.09800
C552        C  0.26596546  0.81137261  0.19671986    -0.26400
S553        S  0.35712492  0.89292201  0.12875106    -0.03600
C554        C  0.35124690  0.89967792  0.07415998    -0.17000
C555        C  0.32390760  0.88311882  0.05830286    -0.15000
H556        H  0.26731593  0.84108520  0.05587037     0.20300
H557        H  0.32197404  0.85310124  0.19886198     0.16400
H558        H  0.27385724  0.81036893  0.22997910     0.18900
H559        H  0.31655244  0.88435855  0.02472136     0.12200
C560        C  0.07561227  0.61902273  0.75955231     0.16100
C561        C  0.09108696  0.63198279  0.72052352    -0.32900
C562        C  0.11258745  0.66015235  0.72451576     0.20500
C563        C  0.11843933  0.67482927  0.76564406     0.02700
C564        C  0.10252487  0.66200055  0.80461865    -0.22700
C565        C  0.08094630  0.63370968  0.80062164     0.11900
S566        S  0.04979620  0.58463626  0.76174196    -0.06300
C567        C  0.04559939  0.58986924  0.81851091    -0.09800
C568        C  0.06350128  0.61710607  0.83469052    -0.26400
S569        S  0.14673549  0.70822207  0.76393703    -0.03600
C570        C  0.15065585  0.70236032  0.70717205    -0.17000
C571        C  0.13070491  0.67590584  0.69076453    -0.15000
H572        H  0.08690831  0.62039298  0.68857295     0.20300
H573        H  0.10713613  0.67339168  0.83681828     0.16400
H574        H  0.06411424  0.62417576  0.86950122     0.18900
H575        H  0.13015842  0.66817824  0.65641461     0.12200
C576        C  0.18623593  0.72442827  0.47968025     0.16100
C577        C  0.17544880  0.71470074  0.43570682    -0.32900
C578        C  0.19201666  0.72983130  0.39876957     0.20500
C579        C  0.21839443  0.75336924  0.40522236     0.02700
C580        C  0.22939650  0.76284500  0.44922787    -0.22700
C581        C  0.21259951  0.74796664  0.48622638     0.11900
S582        S  0.16863950  0.71000655  0.52886988    -0.06300
C583        C  0.19699785  0.73602058  0.55886776    -0.09800
C584        C  0.21893346  0.75466364  0.53156971    -0.26400
S585        S  0.23440342  0.76973911  0.35600020    -0.03600
C586        C  0.20505504  0.74484132  0.32640452    -0.17000
C587        C  0.18436432  0.72470053  0.35367290    -0.15000
H588        H  0.15467886  0.69655588  0.43052194     0.20300
H589        H  0.24982901  0.78147186  0.45442747     0.16400
H590        H  0.23830625  0.77251228  0.54418473     0.18900
H591        H  0.16429100  0.70777187  0.34133375     0.12200
C592        C  0.29085051  0.82244217  0.72417656     0.16100
C593        C  0.31865122  0.84432997  0.73062200    -0.32900
C594        C  0.32574980  0.85882714  0.77266250     0.20500
C595        C  0.30608294  0.85178654  0.80689110     0.02700
C596        C  0.27843959  0.82948160  0.80080438    -0.22700
C597        C  0.27130707  0.81507015  0.75866782     0.11900
S598        S  0.27765825  0.80338389  0.67477052    -0.06300
C599        C  0.24545865  0.78510478  0.70087943    -0.09800
C600        C  0.24529548  0.79345756  0.74566082    -0.26400
S601        S  0.31845290  0.87300513  0.85439448    -0.03600
C602        C  0.35051172  0.89141828  0.82798713    -0.17000
C603        C  0.35138264  0.88138048  0.78477963    -0.15000
H604        H  0.33394445  0.85019185  0.70368932     0.20300
H605        H  0.26300060  0.82397960  0.82741661     0.16400
H606        H  0.22697191  0.78456763  0.76727993     0.18900
H607        H  0.36960588  0.89054837  0.76294373     0.12200
C608        C  0.45635362  0.64479114  0.72799083     0.16100
C609        C  0.45175448  0.61775454  0.73567043    -0.32900
C610        C  0.46364081  0.61379107  0.77490189     0.20500
C611        C  0.47928609  0.63566502  0.80556128     0.02700
C612        C  0.48339909  0.66270652  0.79835580    -0.22700
C613        C  0.47160462  0.66674074  0.75877232     0.11900
S614        S  0.44524602  0.65402613  0.68070900    -0.06300
C615        C  0.46107088  0.68789563  0.70248500    -0.09800
C616        C  0.47408124  0.69159544  0.74453635    -0.26400
S617        S  0.49306695  0.62648794  0.84991414    -0.03600
C618        C  0.47747881  0.59293353  0.82662163    -0.17000
C619        C  0.46236762  0.58926580  0.78696511    -0.15000
H620        H  0.43995599  0.60065673  0.71150530     0.20300
H621        H  0.49572738  0.67994313  0.82199748     0.16400
H622        H  0.48542385  0.71150331  0.76293843     0.18900
H623        H  0.45144423  0.56974872  0.76739552     0.12200
C624        C  0.46368392  0.82064311  0.72131188     0.16100
C625        C  0.46054523  0.84420798  0.72852346    -0.32900
C626        C  0.46929445  0.85841759  0.77065829     0.20500
C627        C  0.48096792  0.84980987  0.80411201     0.02700
C628        C  0.48388620  0.82603783  0.79703971    -0.22700
C629        C  0.47483096  0.81161037  0.75497999     0.11900
S630        S  0.45443513  0.80070506  0.67237502    -0.06300
C631        C  0.46526613  0.77959172  0.69759599    -0.09800
C632        C  0.47559645  0.78789882  0.74167655    -0.26400
S633        S  0.49069388  0.87036921  0.85260176    -0.03600
C634        C  0.47842731  0.89039955  0.82768691    -0.17000
C635        C  0.46764669  0.88155646  0.78408389    -0.15000
H636        H  0.45160870  0.85115022  0.70241266     0.20300
H637        H  0.49276740  0.81906316  0.82318162     0.16400
H638        H  0.48336261  0.77723165  0.76278104     0.18900
H639        H  0.45912521  0.89162122  0.76317496     0.12200
C640        C  0.48132104  0.66937021  0.12198869     0.16100
C641        C  0.48817149  0.65791039  0.08437255    -0.32900
C642        C  0.48432800  0.63075735  0.08834247     0.20500
C643        C  0.47396686  0.61572511  0.12799246     0.02700
C644        C  0.46747138  0.62730555  0.16571770    -0.22700
C645        C  0.47143941  0.65445954  0.16182983     0.11900
S646        S  0.48348172  0.70148696  0.12347310    -0.06300
C647        C  0.47119202  0.69491118  0.17854046    -0.09800
C648        C  0.46581475  0.66907945  0.19454597    -0.26400
S649        S  0.46958949  0.58276083  0.12571958    -0.03600
C650        C  0.48215832  0.58924576  0.07093528    -0.17000
C651        C  0.48933775  0.61570964  0.05542234    -0.15000
H652        H  0.49587305  0.66953466  0.05323360     0.20300
H653        H  0.45937402  0.61551326  0.19662506     0.16400
H654        H  0.45761441  0.66113742  0.22792537     0.18900
H655        H  0.49718551  0.62326057  0.02173650     0.12200
C656        C  0.45316303  0.81566840  0.15936472     0.16100
C657        C  0.44758104  0.83759036  0.15254501    -0.32900
C658        C  0.46036875  0.85507090  0.11546215     0.20500
C659        C  0.47786548  0.85086817  0.08635273     0.02700
C660        C  0.48314102  0.82870695  0.09281529    -0.22700
C661        C  0.47036414  0.81123042  0.12992509     0.11900
S662        S  0.44086599  0.79312888  0.20372359    -0.06300
C663        C  0.45889341  0.77739330  0.18220046    -0.09800
C664        C  0.47347387  0.78903095  0.14257160    -0.26400
S665        S  0.49201140  0.87485540  0.04415040    -0.03600
C666        C  0.47409766  0.89063935  0.06588291    -0.17000
C667        C  0.45803615  0.87786041  0.10376796    -0.15000
H668        H  0.43419877  0.84112392  0.17553160     0.20300
H669        H  0.49687401  0.82544347  0.07024083     0.16400
H670        H  0.48632569  0.78217047  0.12479611     0.18900
H671        H  0.44555364  0.88500447  0.12198447     0.12200
C672        C  0.45228330  0.71184211  0.47776358     0.16100
C673        C  0.45311549  0.70141558  0.43417582    -0.32900
C674        C  0.45159242  0.71603038  0.39656872     0.20500
C675        C  0.44885985  0.73967427  0.40228221     0.02700
C676        C  0.44786324  0.74998919  0.44579962    -0.22700
C677        C  0.44989379  0.73568805  0.48334765     0.11900
S678        S  0.45512129  0.69791370  0.52758964    -0.06300
C679        C  0.45352801  0.72474856  0.55636893    -0.09800
C680        C  0.45061180  0.74322492  0.52834572    -0.26400
S681        S  0.44821290  0.75499629  0.35276538    -0.03600
C682        C  0.45212404  0.72960453  0.32369304    -0.17000
C683        C  0.45344145  0.71008228  0.35144717    -0.15000
H684        H  0.45543768  0.68305487  0.42979491     0.20300
H685        H  0.44618292  0.76872501  0.45018413     0.16400
H686        H  0.44951624  0.76144169  0.54018868     0.18900
H687        H  0.45627074  0.69291761  0.33939565     0.12200
loop_ 
_geom_bond_atom_site_label_1 
_geom_bond_atom_site_label_2 
_geom_bond_distance 
_geom_bond_site_symmetry_2 
_ccdc_geom_bond_type 
C1            N2   1.366       .  A
C1            N6   1.359       .  A
C1          C647   1.477       .  S
N2            C3   1.364       .  A
C3            N4   1.356       .  A
C3          C682   1.478       .  S
N4            C5   1.353       .  A
C5            N6   1.356       .  A
C5          C663   1.468       .  S
C7            N8   1.357       .  A
C7           N12   1.359       .  A
C7          C615   1.472       .  S
N8            C9   1.356       .  A
C9           N10   1.361       .  A
C9          C679   1.478       .  S
N10          C11   1.363       .  A
C11          N12   1.361       .  A
C11         C631   1.477       .  S
C13          N14   1.359       .  A
C13          N18   1.359       .  A
C13         C599   1.476       .  S
N14          C15   1.360       .  A
C15          N16   1.363       .  A
C15         C583   1.482       .  S
N16          C17   1.363       .  A
C17          N18   1.359       .  A
C17         C570   1.481       .  S
C19          N20   1.353       .  A
C19          N24   1.361       .  A
C19         C551   1.469       .  S
N20          C21   1.353       .  A
C21          N22   1.360       .  A
C21         C538   1.467       .  S
N22          C23   1.361       .  A
C23          N24   1.361       .  A
C23         C586   1.479       .  S
C25          N26   1.361       .  A
C25          N30   1.358       .  A
C25         C522   1.472       .  S
N26          C27   1.360       .  A
C27          N28   1.356       .  A
C27         C490   1.472       .  S
N28          C29   1.354       .  A
C29          N30   1.358       .  A
C29         C506   1.469       .  S
C31          N32   1.356       .  A
C31          N36   1.351       .  A
C31         C471   1.464       .  S
N32          C33   1.358       .  A
C33          N34   1.362       .  A
C33         C487   1.470       .  S
N34          C35   1.360       .  A
C35          N36   1.354       .  A
C35         C458   1.466       .  S
C37          N38   1.365       .  A
C37          N42   1.360       .  A
C37         C439   1.476       .  S
N38          C39   1.363       .  A
C39          N40   1.354       .  A
C39         C423   1.476       .  S
N40          C41   1.353       .  A
C41          N42   1.357       .  A
C41         C410   1.467       .  S
C43          N44   1.353       .  A
C43          N48   1.355       .  A
C43         C394   1.465       .  S
N44          C45   1.354       .  A
C45          N46   1.362       .  A
C45         C426   1.474       .  S
N46          C47   1.364       .  A
C47          N48   1.357       .  A
C47         C378   1.472       .  S
C49          N50   1.354       .  A
C49          N54   1.357       .  A
C49         C327   1.472       .  S
N50          C51   1.356       .  A
C51          N52   1.361       .  A
C51         C346   1.474       .  S
N52          C53   1.363       .  A
C53          N54   1.360       .  A
C53         C359   1.474       .  S
C55          N56   1.355       .  A
C55          N60   1.360       .  A
C55         C298   1.468       .  S
N56          C57   1.353       .  A
C57          N58   1.357       .  A
C57         C311   1.468       .  S
N58          C59   1.359       .  A
C59          N60   1.362       .  A
C59         C343   1.474       .  S
C61          N62   1.355       .  A
C61          N66   1.363       .  A
C61         C282   1.473       .  S
N62          C63   1.353       .  A
C63          N64   1.356       .  A
C63         C263   1.467       .  S
N64          C65   1.359       .  A
C65          N66   1.363       .  A
C65         C250   1.477       .  S
C67          N68   1.359       .  A
C67          N72   1.353       .  A
C67         C231   1.468       .  S
N68          C69   1.360       .  A
C69          N70   1.361       .  A
C69         C247   1.475       .  S
N70          C71   1.360       .  A
C71          N72   1.353       .  A
C71         C215   1.468       .  S
N73          N74   1.317       .  A
N73          N79   1.316       .  A
N73        Mn102   2.196       .  S
N74          C81   1.351       .  A
N75          N77   1.315       .  A
N75          N76   1.324       .  A
N75         Mn91   2.221       .  S
N76          C82   1.357       .  A
N77          N78   1.316       .  A
N77        Mn102   2.173       .  S
N78          C82   1.346       .  A
N79          N80   1.323       .  A
N79         Mn91   2.208       .  S
N80          C81   1.355       .  A
C81         C618   1.470       .  S
C82         C295   1.467       .  S
N83          N89   1.316   1_554  A
N83          N84   1.320       .  A
N83        Mn113   2.201       .  S
N84          C92   1.352       .  A
N85          N86   1.326   1_556  A
N85          N87   1.315   1_556  A
N85         Mn91   2.226       .  S
N86          C93   1.359       .  A
N87          N88   1.316       .  A
N87        Mn113   2.178       .  S
N88          C93   1.347       .  A
N89          N90   1.322       .  A
N89         Mn91   2.212       .  S
N90          C92   1.354   1_556  A
Mn91       Cl115   2.564       .  S
C92         C330   1.471       .  S
C93         C650   1.472       .  S
N94          N95   1.318       .  A
N94         N100   1.317       .  A
N94        Mn102   2.197       .  S
N95         C103   1.350       .  A
N96          N98   1.315       .  A
N96          N97   1.325       .  A
N96        Mn114   2.220       .  S
N97         C104   1.357       .  A
N98          N99   1.314       .  A
N98        Mn102   2.170       .  S
N99         C104   1.345       .  A
N100        N101   1.322       .  A
N100       Mn114   2.207       .  S
N101        C103   1.354       .  A
Mn102      Cl115   2.526       .  S
C103        C266   1.467       .  S
C104        C455   1.465       .  S
N105        N106   1.319       .  A
N105        N111   1.317   1_554  A
N105       Mn113   2.197       .  S
N106        C116   1.351       .  A
N107        N108   1.325       .  A
N107        N109   1.316   1_556  A
N107       Mn114   2.218       .  S
N108        C117   1.357   1_556  A
N109        N110   1.314       .  A
N109       Mn113   2.176       .  S
N110        C117   1.346       .  A
N111        N112   1.321       .  A
N111       Mn114   2.207       .  S
N112        C116   1.353   1_556  A
Mn113      Cl115   2.530   1_554  S
Mn114      Cl115   2.564       .  S
C116        C503   1.467       .  S
C117        C218   1.466       .  S
N118        N119   1.316   1_655  A
N118        N124   1.316       .  A
N118       Mn147   2.188       .  S
N119        C126   1.349       .  A
N120        N122   1.316       .  A
N120        N121   1.324       .  A
N120       Mn136   2.222   1_554  S
N121        C127   1.356       .  A
N122        N123   1.318       .  A
N122       Mn147   2.187       .  S
N123        C127   1.349       .  A
N124        N125   1.322   1_655  A
N124       Mn136   2.206   1_554  S
N125        C126   1.354       .  A
C126        C535   1.463       .  S
C127        C362   1.471       .  S
N128        N134   1.315       .  A
N128        N129   1.315       .  A
N128       Mn158   2.181       .  S
N129        C137   1.348       .  A
N130        N131   1.328   1_655  A
N130        N132   1.316       .  A
N130       Mn136   2.231       .  S
N131        C138   1.359       .  A
N132        N133   1.317   1_655  A
N132       Mn158   2.192       .  S
N133        C138   1.349       .  A
N134        N135   1.324       .  A
N134       Mn136   2.212       .  S
N135        C137   1.356       .  A
Mn136      Cl160   2.566       .  S
C137        C314   1.465       .  S
C138        C567   1.479       .  S
N139        N140   1.316       .  A
N139        N145   1.316   1_554  A
N139       Mn147   2.189       .  S
N140        C148   1.350       .  A
N141        N143   1.316   1_556  A
N141        N142   1.326   1_656  A
N141       Mn159   2.225       .  S
N142        C149   1.358       .  A
N143        N144   1.316   1_655  A
N143       Mn147   2.183       .  S
N144        C149   1.347       .  A
N145        N146   1.321   1_556  A
N145       Mn159   2.199       .  S
N146        C148   1.353       .  A
Mn147      Cl160   2.526   1_554  S
C148        C391   1.462       .  S
C149        C519   1.471       .  S
N150        N151   1.314   1_655  A
N150        N156   1.315       .  A
N150       Mn158   2.178       .  S
N151        C161   1.347       .  A
N152        N153   1.327       .  A
N152        N154   1.315       .  A
N152       Mn159   2.224       .  S
N153        C162   1.358       .  A
N154        N155   1.316       .  A
N154       Mn158   2.189       .  S
N155        C162   1.348       .  A
N156        N157   1.323   1_655  A
N156       Mn159   2.206       .  S
N157        C161   1.355       .  A
Mn158      Cl160   2.521       .  S
Mn159      Cl160   2.569       .  S
C161        C474   1.461       .  S
C162        C442   1.475       .  S
N163        N164   1.321       .  A
N163        N169   1.315       .  A
N163       Mn192   2.200       .  S
N164        C171   1.353       .  A
N165        N167   1.315       .  A
N165        N166   1.325       .  A
N165       Mn181   2.221   1_544  S
N166        C172   1.357       .  A
N167        N168   1.316       .  A
N167       Mn192   2.182   1_545  S
N168        C172   1.348       .  A
N169        N170   1.319       .  A
N169       Mn181   2.192   1_554  S
N170        C171   1.351       .  A
C171        C666   1.467       .  S
C172        C375   1.470       .  S
N173        N179   1.316       .  A
N173        N174   1.320       .  A
N173       Mn203   2.206   1_545  S
N174        C182   1.353       .  A
N175        N176   1.323       .  A
N175        N177   1.316       .  A
N175       Mn181   2.216       .  S
N176        C183   1.355       .  A
N177        N178   1.319       .  A
N177       Mn203   2.197       .  S
N178        C183   1.352       .  A
N179        N180   1.320       .  A
N179       Mn181   2.192   1_545  S
N180        C182   1.351       .  A
Mn181      Cl205   2.557       .  S
C182        C407   1.467       .  S
C183        C634   1.474       .  S
N184        N185   1.318       .  A
N184        N190   1.316       .  A
N184       Mn192   2.193   1_545  S
N185        C193   1.349       .  A
N186        N188   1.315       .  A
N186        N187   1.325       .  A
N186       Mn204   2.215   1_554  S
N187        C194   1.356       .  A
N188        N189   1.314       .  A
N188       Mn192   2.176       .  S
N189        C194   1.347       .  A
N190        N191   1.323       .  A
N190       Mn204   2.211   1_544  S
N191        C193   1.355       .  A
Mn192      Cl205   2.534   1_554  S
C193        C234   1.468       .  S
C194        C554   1.464       .  S
N195        N196   1.321       .  A
N195        N201   1.317       .  A
N195       Mn203   2.208       .  S
N196        C206   1.353       .  A
N197        N198   1.325       .  A
N197        N199   1.316       .  A
N197       Mn204   2.219   1_545  S
N198        C207   1.356       .  A
N199        N200   1.317       .  A
N199       Mn203   2.191   1_545  S
N200        C207   1.349       .  A
N201        N202   1.321       .  A
N201       Mn204   2.207       .  S
N202        C206   1.353       .  A
Mn203      Cl205   2.539       .  S
Mn204      Cl205   2.559       .  S
C206        C602   1.473       .  S
C207        C279   1.470       .  S
C208        S214   1.703       .  A
C208        C213   1.387       .  A
C208        C209   1.402       .  A
C209        C210   1.402       .  A
C209        H220   1.083       .  S
C210        C219   1.373       .  A
C210        C211   1.388       .  A
C211        S217   1.698       .  A
C211        C212   1.398       .  A
C212        C213   1.398       .  A
C212        H221   1.083       .  S
C213        C216   1.369       .  A
S214        C215   1.725       .  A
C215        C216   1.383       .  A
C216        H222   1.083       .  S
S217        C218   1.721       .  A
C218        C219   1.385       .  A
C219        H223   1.083       .  S
C224        S230   1.704       .  A
C224        C229   1.387       .  A
C224        C225   1.401       .  A
C225        C226   1.401       .  A
C225        H236   1.083       .  S
C226        C235   1.371       .  A
C226        C227   1.388       .  A
C227        S233   1.702       .  A
C227        C228   1.400       .  A
C228        C229   1.400       .  A
C228        H237   1.083       .  S
C229        C232   1.369       .  A
S230        C231   1.724       .  A
C231        C232   1.384       .  A
C232        H238   1.083       .  S
S233        C234   1.722       .  A
C234        C235   1.385       .  A
C235        H239   1.083       .  S
C240        S246   1.707       .  A
C240        C245   1.387       .  A
C240        C241   1.400       .  A
C241        C242   1.402       .  A
C241        H252   1.083       .  S
C242        C251   1.368       .  A
C242        C243   1.386       .  A
C243        S249   1.712       .  A
C243        C244   1.403       .  A
C244        C245   1.405       .  A
C244        H253   1.083       .  S
C245        C248   1.372       .  A
S246        C247   1.723       .  A
C247        C248   1.389       .  A
C248        H254   1.083       .  S
S249        C250   1.725       .  A
C250        C251   1.388       .  A
C251        H255   1.083       .  S
C256        S262   1.704       .  A
C256        C261   1.387       .  A
C256        C257   1.400       .  A
C257        C258   1.400       .  A
C257        H268   1.083       .  S
C258        C267   1.370       .  A
C258        C259   1.388       .  A
C259        S265   1.704       .  A
C259        C260   1.401       .  A
C260        C261   1.401       .  A
C260        H269   1.084       .  S
C261        C264   1.370       .  A
S262        C263   1.722       .  A
C263        C264   1.385       .  A
C264        H270   1.083       .  S
S265        C266   1.722       .  A
C266        C267   1.384       .  A
C267        H271   1.083       .  S
C272        S278   1.701       .  A
C272        C277   1.388       .  A
C272        C273   1.401       .  A
C273        C274   1.400       .  A
C273        H284   1.083       .  S
C274        C283   1.372       .  A
C274        C275   1.387       .  A
C275        S281   1.704       .  A
C275        C276   1.403       .  A
C276        C277   1.402       .  A
C276        H285   1.083       .  S
C277        C280   1.375       .  A
S278        C279   1.722       .  A
C279        C280   1.386       .  A
C280        H286   1.083       .  S
S281        C282   1.726       .  A
C282        C283   1.385       .  A
C283        H287   1.083       .  S
C288        S294   1.703       .  A
C288        C293   1.388       .  A
C288        C289   1.402       .  A
C289        C290   1.401       .  A
C289        H300   1.083       .  S
C290        C299   1.372       .  A
C290        C291   1.388       .  A
C291        S297   1.701       .  A
C291        C292   1.400       .  A
C292        C293   1.399       .  A
C292        H301   1.083       .  S
C293        C296   1.371       .  A
S294        C295   1.724       .  A
C295        C296   1.383       .  A
C296        H302   1.083       .  S
S297        C298   1.722       .  A
C298        C299   1.385       .  A
C299        H303   1.083       .  S
C304        S310   1.705       .  A
C304        C309   1.387       .  A
C304        C305   1.402       .  A
C305        C306   1.402       .  A
C305        H316   1.083       .  S
C306        C315   1.372       .  A
C306        C307   1.388       .  A
C307        S313   1.699       .  A
C307        C308   1.398       .  A
C308        C309   1.398       .  A
C308        H317   1.083       .  S
C309        C312   1.368       .  A
S310        C311   1.724       .  A
C311        C312   1.383       .  A
C312        H318   1.083       .  S
S313        C314   1.721       .  A
C314        C315   1.385       .  A
C315        H319   1.083       .  S
C320        S326   1.704       .  A
C320        C325   1.387       .  A
C320        C321   1.400       .  A
C321        C322   1.401       .  A
C321        H332   1.083       .  S
C322        C331   1.369       .  A
C322        C323   1.387       .  A
C323        S329   1.710       .  A
C323        C324   1.403       .  A
C324        C325   1.404       .  A
C324        H333   1.083       .  S
C325        C328   1.373       .  A
S326        C327   1.723       .  A
C327        C328   1.387       .  A
C328        H334   1.083       .  S
S329        C330   1.723       .  A
C330        C331   1.385       .  A
C331        H335   1.083       .  S
C336        S342   1.706       .  A
C336        C341   1.387       .  A
C336        C337   1.403       .  A
C337        C338   1.403       .  A
C337        H348   1.083       .  S
C338        C347   1.374       .  A
C338        C339   1.387       .  A
C339        S345   1.702       .  A
C339        C340   1.400       .  A
C340        C341   1.400       .  A
C340        H349   1.083       .  S
C341        C344   1.370       .  A
S342        C343   1.725       .  A
C343        C344   1.386       .  A
C344        H350   1.083       .  S
S345        C346   1.724       .  A
C346        C347   1.388       .  A
C347        H351   1.083       .  S
C352        S358   1.705       .  A
C352        C357   1.387       .  A
C352        C353   1.401       .  A
C353        C354   1.401       .  A
C353        H364   1.083       .  S
C354        C363   1.372       .  A
C354        C355   1.387       .  A
C355        S361   1.706       .  A
C355        C356   1.403       .  A
C356        C357   1.403       .  A
C356        H365   1.083       .  S
C357        C360   1.373       .  A
S358        C359   1.723       .  A
C359        C360   1.388       .  A
C360        H366   1.083       .  S
S361        C362   1.724       .  A
C362        C363   1.384       .  A
C363        H367   1.083       .  S
C368        S374   1.700       .  A
C368        C373   1.388       .  A
C368        C369   1.399       .  A
C369        C370   1.399       .  A
C369        H380   1.083       .  S
C370        C379   1.370       .  A
C370        C371   1.387       .  A
C371        S377   1.706       .  A
C371        C372   1.404       .  A
C372        C373   1.404       .  A
C372        H381   1.083       .  S
C373        C376   1.375       .  A
S374        C375   1.722       .  A
C375        C376   1.386       .  A
C376        H382   1.083       .  S
S377        C378   1.726       .  A
C378        C379   1.384       .  A
C379        H383   1.083       .  S
C384        S390   1.709       .  A
C384        C389   1.387       .  A
C384        C385   1.401       .  A
C385        C386   1.402       .  A
C385        H396   1.083       .  S
C386        C395   1.368       .  A
C386        C387   1.388       .  A
C387        S393   1.700       .  A
C387        C388   1.395       .  A
C388        C389   1.397       .  A
C388        H397   1.083       .  S
C389        C392   1.362       .  A
S390        C391   1.721       .  A
C391        C392   1.382       .  A
C392        H398   1.084       .  S
S393        C394   1.720       .  A
C394        C395   1.386       .  A
C395        H399   1.083       .  S
C400        S406   1.708       .  A
C400        C405   1.387       .  A
C400        C401   1.403       .  A
C401        C402   1.403       .  A
C401        H412   1.083       .  S
C402        C411   1.371       .  A
C402        C403   1.388       .  A
C403        S409   1.700       .  A
C403        C404   1.397       .  A
C404        C405   1.398       .  A
C404        H413   1.083       .  S
C405        C408   1.366       .  A
S406        C407   1.723       .  A
C407        C408   1.383       .  A
C408        H414   1.083       .  S
S409        C410   1.721       .  A
C410        C411   1.386       .  A
C411        H415   1.083       .  S
C416        S422   1.702       .  A
C416        C421   1.387       .  A
C416        C417   1.403       .  A
C417        C418   1.401       .  A
C417        H428   1.084       .  S
C418        C427   1.374       .  A
C418        C419   1.387       .  A
C419        S425   1.702       .  A
C419        C420   1.402       .  A
C420        C421   1.401       .  A
C420        H429   1.084       .  S
C421        C424   1.374       .  A
S422        C423   1.726       .  A
C423        C424   1.386       .  A
C424        H430   1.083       .  S
S425        C426   1.725       .  A
C426        C427   1.386       .  A
C427        H431   1.083       .  S
C432        S438   1.709       .  A
C432        C437   1.387       .  A
C432        C433   1.407       .  A
C433        C434   1.406       .  A
C433        H444   1.083       .  S
C434        C443   1.379       .  A
C434        C435   1.387       .  A
C435        S441   1.701       .  A
C435        C436   1.400       .  A
C436        C437   1.400       .  A
C436        H445   1.083       .  S
C437        C440   1.372       .  A
S438        C439   1.727       .  A
C439        C440   1.385       .  A
C440        H446   1.083       .  S
S441        C442   1.723       .  A
C442        C443   1.389       .  A
C443        H447   1.083       .  S
C448        S454   1.700       .  A
C448        C453   1.388       .  A
C448        C449   1.401       .  A
C449        C450   1.400       .  A
C449        H460   1.084       .  S
C450        C459   1.371       .  A
C450        C451   1.388       .  A
C451        S457   1.700       .  A
C451        C452   1.399       .  A
C452        C453   1.399       .  A
C452        H461   1.083       .  S
C453        C456   1.371       .  A
S454        C455   1.724       .  A
C455        C456   1.382       .  A
C456        H462   1.083       .  S
S457        C458   1.723       .  A
C458        C459   1.384       .  A
C459        H463   1.083       .  S
C464        S470   1.703       .  A
C464        C469   1.387       .  A
C464        C465   1.401       .  A
C465        C466   1.401       .  A
C465        H476   1.083       .  S
C466        C475   1.370       .  A
C466        C467   1.388       .  A
C467        S473   1.697       .  A
C467        C468   1.396       .  A
C468        C469   1.397       .  A
C468        H477   1.083       .  S
C469        C472   1.365       .  A
S470        C471   1.723       .  A
C471        C472   1.382       .  A
C472        H478   1.083       .  S
S473        C474   1.720       .  A
C474        C475   1.383       .  A
C475        H479   1.083       .  S
C480        S486   1.704       .  A
C480        C485   1.387       .  A
C480        C481   1.401       .  A
C481        C482   1.402       .  A
C481        H492   1.083       .  S
C482        C491   1.371       .  A
C482        C483   1.387       .  A
C483        S489   1.702       .  A
C483        C484   1.400       .  A
C484        C485   1.400       .  A
C484        H493   1.083       .  S
C485        C488   1.370       .  A
S486        C487   1.724       .  A
C487        C488   1.385       .  A
C488        H494   1.083       .  S
S489        C490   1.724       .  A
C490        C491   1.386       .  A
C491        H495   1.083       .  S
C496        S502   1.706       .  A
C496        C501   1.387       .  A
C496        C497   1.399       .  A
C497        C498   1.400       .  A
C497        H508   1.083       .  S
C498        C507   1.368       .  A
C498        C499   1.387       .  A
C499        S505   1.705       .  A
C499        C500   1.401       .  A
C500        C501   1.402       .  A
C500        H509   1.083       .  S
C501        C504   1.369       .  A
S502        C503   1.720       .  A
C503        C504   1.386       .  A
C504        H510   1.083       .  S
S505        C506   1.724       .  A
C506        C507   1.385       .  A
C507        H511   1.083       .  S
C512        S518   1.700       .  A
C512        C517   1.388       .  A
C512        C513   1.400       .  A
C513        C514   1.399       .  A
C513        H524   1.083       .  S
C514        C523   1.370       .  A
C514        C515   1.387       .  A
C515        S521   1.708       .  A
C515        C516   1.404       .  A
C516        C517   1.404       .  A
C516        H525   1.083       .  S
C517        C520   1.376       .  A
S518        C519   1.723       .  A
C519        C520   1.386       .  A
C520        H526   1.083       .  S
S521        C522   1.725       .  A
C522        C523   1.385       .  A
C523        H527   1.083       .  S
C528        S534   1.701       .  A
C528        C533   1.388       .  A
C528        C529   1.398       .  A
C529        C530   1.398       .  A
C529        H540   1.083       .  S
C530        C539   1.368       .  A
C530        C531   1.387       .  A
C531        S537   1.703       .  A
C531        C532   1.401       .  A
C532        C533   1.401       .  A
C532        H541   1.083       .  S
C533        C536   1.370       .  A
S534        C535   1.720       .  A
C535        C536   1.384       .  A
C536        H542   1.083       .  S
S537        C538   1.725       .  A
C538        C539   1.383       .  A
C539        H543   1.083       .  S
C544        S550   1.705       .  A
C544        C549   1.387       .  A
C544        C545   1.403       .  A
C545        C546   1.403       .  A
C545        H556   1.083       .  S
C546        C555   1.374       .  A
C546        C547   1.388       .  A
C547        S553   1.697       .  A
C547        C548   1.397       .  A
C548        C549   1.396       .  A
C548        H557   1.083       .  S
C549        C552   1.367       .  A
S550        C551   1.726       .  A
C551        C552   1.382       .  A
C552        H558   1.083       .  S
S553        C554   1.720       .  A
C554        C555   1.385       .  A
C555        H559   1.083       .  S
C560        S566   1.703       .  A
C560        C565   1.387       .  A
C560        C561   1.402       .  A
C561        C562   1.401       .  A
C561        H572   1.083       .  S
C562        C571   1.374       .  A
C562        C563   1.386       .  A
C563        S569   1.711       .  A
C563        C564   1.408       .  A
C564        C565   1.407       .  A
C564        H573   1.083       .  S
C565        C568   1.381       .  A
S566        C567   1.724       .  A
C567        C568   1.390       .  A
C568        H574   1.083       .  S
S569        C570   1.728       .  A
C570        C571   1.387       .  A
C571        H575   1.083       .  S
C576        S582   1.710       .  A
C576        C581   1.386       .  A
C576        C577   1.403       .  A
C577        C578   1.404       .  A
C577        H588   1.083       .  S
C578        C587   1.372       .  A
C578        C579   1.386       .  A
C579        S585   1.711       .  A
C579        C580   1.404       .  A
C580        C581   1.406       .  A
C580        H589   1.084       .  S
C581        C584   1.374       .  A
S582        C583   1.725       .  A
C583        C584   1.391       .  A
C584        H590   1.083       .  S
S585        C586   1.726       .  A
C586        C587   1.388       .  A
C587        H591   1.083       .  S
C592        S598   1.709       .  A
C592        C597   1.387       .  A
C592        C593   1.402       .  A
C593        C594   1.403       .  A
C593        H604   1.083       .  S
C594        C603   1.372       .  A
C594        C595   1.387       .  A
C595        S601   1.709       .  A
C595        C596   1.403       .  A
C596        C597   1.404       .  A
C596        H605   1.083       .  S
C597        C600   1.372       .  A
S598        C599   1.724       .  A
C599        C600   1.388       .  A
C600        H606   1.083       .  S
S601        C602   1.723       .  A
C602        C603   1.386       .  A
C603        H607   1.083       .  S
C608        S614   1.702       .  A
C608        C613   1.387       .  A
C608        C609   1.398       .  A
C609        C610   1.399       .  A
C609        H620   1.083       .  S
C610        C619   1.366       .  A
C610        C611   1.387       .  A
C611        S617   1.713       .  A
C611        C612   1.405       .  A
C612        C613   1.406       .  A
C612        H621   1.083       .  S
C613        C616   1.374       .  A
S614        C615   1.721       .  A
C615        C616   1.388       .  A
C616        H622   1.083       .  S
S617        C618   1.724       .  A
C618        C619   1.384       .  A
C619        H623   1.084       .  S
C624        S630   1.708       .  A
C624        C629   1.387       .  A
C624        C625   1.401       .  A
C625        C626   1.402       .  A
C625        H636   1.083       .  S
C626        C635   1.370       .  A
C626        C627   1.387       .  A
C627        S633   1.713       .  A
C627        C628   1.404       .  A
C628        C629   1.406       .  A
C628        H637   1.083       .  S
C629        C632   1.374       .  A
S630        C631   1.723       .  A
C631        C632   1.390       .  A
C632        H638   1.083       .  S
S633        C634   1.724       .  A
C634        C635   1.386       .  A
C635        H639   1.083       .  S
C640        S646   1.707       .  A
C640        C645   1.387       .  A
C640        C641   1.405       .  A
C641        C642   1.404       .  A
C641        H652   1.083       .  S
C642        C651   1.377       .  A
C642        C643   1.387       .  A
C643        S649   1.702       .  A
C643        C644   1.402       .  A
C644        C645   1.401       .  A
C644        H653   1.083       .  S
C645        C648   1.374       .  A
S646        C647   1.727       .  A
C647        C648   1.386       .  A
C648        H654   1.083       .  S
S649        C650   1.723       .  A
C650        C651   1.386       .  A
C651        H655   1.083       .  S
C656        S662   1.704       .  A
C656        C661   1.387       .  A
C656        C657   1.400       .  A
C657        C658   1.401       .  A
C657        H668   1.083       .  S
C658        C667   1.369       .  A
C658        C659   1.387       .  A
C659        S665   1.705       .  A
C659        C660   1.401       .  A
C660        C661   1.401       .  A
C660        H669   1.083       .  S
C661        C664   1.370       .  A
S662        C663   1.722       .  A
C663        C664   1.385       .  A
C664        H670   1.083       .  S
S665        C666   1.722       .  A
C666        C667   1.384       .  A
C667        H671   1.083       .  S
C672        S678   1.707       .  A
C672        C677   1.387       .  A
C672        C673   1.405       .  A
C673        C674   1.404       .  A
C673        H684   1.083       .  S
C674        C683   1.377       .  A
C674        C675   1.387       .  A
C675        S681   1.703       .  A
C675        C676   1.402       .  A
C676        C677   1.402       .  A
C676        H685   1.083       .  S
C677        C680   1.374       .  A
S678        C679   1.726       .  A
C679        C680   1.387       .  A
C680        H686   1.083       .  S
S681        C682   1.726       .  A
C682        C683   1.388       .  A
C683        H687   1.083       .  S
