geometry optimzed in LAMMPS
_audit_creation_date              2020-12-01 
_audit_creation_method            'lammps2cif' 
_symmetry_space_group_name_H-M    'P1' 
_symmetry_Int_Tables_number       1 
_symmetry_cell_setting            triclinic 
loop_ 
_symmetry_equiv_pos_as_xyz 
  x,y,z 
_cell_length_a                    46.88062127 
_cell_length_b                    46.38902079478651 
_cell_length_c                    45.10028727195078 
_cell_angle_alpha                 89.50633513067328 
_cell_angle_beta                  90.03640591539208 
_cell_angle_gamma                 90.17358520507435 
loop_ 
_atom_site_label 
_atom_site_type_symbol 
_atom_site_fract_x 
_atom_site_fract_y 
_atom_site_fract_z 
_atom_site_charge 
O1          O  0.54301065  0.47474786  0.68372780    -0.72600
O2          O  0.47741305  0.53099923  0.68686902    -0.73600
O3          O  0.48216445  0.46972937  0.68324220    -0.62200
O4          O  0.53862785  0.53635626  0.68635456    -0.70600
O5          O  0.53674917  0.53882091  0.63725810    -0.70200
O6          O  0.48286411  0.47322316  0.63426453    -0.61400
O7          O  0.47682656  0.53303094  0.63763293    -0.73900
O8          O  0.54261172  0.47815437  0.63473975    -0.72700
Cu9        Cu  0.51034402  0.50293368  0.68690203     1.04600
Cu10       Cu  0.50982447  0.50596288  0.63440998     1.04300
C11         C  0.55295859  0.46726656  0.65858123     0.93600
C12         C  0.46651456  0.54030904  0.66265080     0.92700
C13         C  0.47387860  0.46090984  0.65779034     0.84900
C14         C  0.54654025  0.54797018  0.66182223     0.91200
O15         O  0.74036189  0.46404505  0.41571094    -0.72600
O16         O  0.73325108  0.52696141  0.35561633    -0.73600
O17         O  0.73670894  0.46668672  0.35357957    -0.62200
O18         O  0.73686312  0.52459032  0.41792848    -0.70600
O19         O  0.78384888  0.52924192  0.41450591    -0.70200
O20         O  0.78384213  0.46810261  0.35049970    -0.61400
O21         O  0.78040275  0.52932235  0.35100663    -0.73900
O22         O  0.78761459  0.46756735  0.41439739    -0.72700
Cu23       Cu  0.73529279  0.49544550  0.38584361     1.04600
Cu24       Cu  0.78572784  0.49862843  0.38255734     1.04300
C25         C  0.76487250  0.45605266  0.42482082     0.93600
C26         C  0.75547065  0.53771302  0.34347917     0.92700
C27         C  0.75977145  0.45861729  0.34126618     0.84900
C28         C  0.76010622  0.53623172  0.42645588     0.91200
O29         O  0.52578394  0.72106477  0.38586453    -0.72600
O30         O  0.46462884  0.72802969  0.44699912    -0.73600
O31         O  0.46537911  0.72040347  0.38524697    -0.62200
O32         O  0.52497327  0.72797035  0.44826542    -0.70600
O33         O  0.52675387  0.77542871  0.44177029    -0.70200
O34         O  0.46447304  0.76783765  0.37919408    -0.61400
O35         O  0.46543159  0.77572183  0.44231026    -0.73900
O36         O  0.52546531  0.76840284  0.37899476    -0.72700
Cu37       Cu  0.49524584  0.72281200  0.41684235     1.04600
Cu38       Cu  0.49553313  0.77359521  0.41037045     1.04300
C39         C  0.53502619  0.74352036  0.37234340     0.93600
C40         C  0.45525351  0.75281617  0.45420855     0.92700
C41         C  0.45512764  0.74271785  0.37245947     0.84900
C42         C  0.53543194  0.75251288  0.45493245     0.91200
O43         O  0.22926918  0.52249124  0.36880628    -0.72600
O44         O  0.23018898  0.46826156  0.43897426    -0.73600
O45         O  0.23327240  0.52874647  0.43118931    -0.62200
O46         O  0.22656741  0.46092936  0.37601044    -0.70600
O47         O  0.27376908  0.45869228  0.37452739    -0.70200
O48         O  0.28038766  0.52619185  0.42740169    -0.61400
O49         O  0.27730657  0.46659260  0.43617688    -0.73900
O50         O  0.27640728  0.51888996  0.36542947    -0.72700
Cu51       Cu  0.22807018  0.49513118  0.40369768     1.04600
Cu52       Cu  0.27850973  0.49247452  0.40066427     1.04300
C53         C  0.25282048  0.52954492  0.35646340     0.93600
C54         C  0.25414088  0.45971304  0.44931880     0.92700
C55         C  0.25812789  0.53771677  0.43835019     0.84900
C56         C  0.24942776  0.44897598  0.36678395     0.91200
O57         O  0.52801668  0.28844850  0.42789131    -0.72600
O58         O  0.46407386  0.28178343  0.36950417    -0.73600
O59         O  0.46760798  0.28319803  0.43184211    -0.62200
O60         O  0.52420974  0.28669016  0.36510344    -0.70600
O61         O  0.52928848  0.23915107  0.36751604    -0.70200
O62         O  0.47123379  0.23547854  0.43350526    -0.61400
O63         O  0.46836112  0.23410696  0.36988094    -0.73900
O64         O  0.53197929  0.24099716  0.43045780    -0.72700
Cu65       Cu  0.49586921  0.28662968  0.39856937     1.04600
Cu66       Cu  0.50032069  0.23570967  0.40040049     1.04300
C67         C  0.54023931  0.26602746  0.43853282     0.93600
C68         C  0.45621605  0.25706624  0.36033358     0.92700
C69         C  0.46028365  0.25886032  0.44294889     0.84900
C70         C  0.53589517  0.26353827  0.35601855     0.91200
O71         O  0.51580616  0.46672960  0.15848701    -0.72600
O72         O  0.46177410  0.53260664  0.15754800    -0.73600
O73         O  0.45594982  0.47221297  0.15649644    -0.62200
O74         O  0.52128167  0.52746841  0.15923418    -0.70600
O75         O  0.52155180  0.53015837  0.11007002    -0.70200
O76         O  0.45765623  0.47148532  0.10737772    -0.61400
O77         O  0.46099684  0.53304235  0.10833757    -0.73900
O78         O  0.51876713  0.46792087  0.10948741    -0.72700
Cu79       Cu  0.48869265  0.49963710  0.15952028     1.04600
Cu80       Cu  0.48986812  0.50059569  0.10697048     1.04300
C81         C  0.52612482  0.45686106  0.13445458     0.93600
C82         C  0.45295010  0.54343600  0.13314466     0.92700
C83         C  0.44618428  0.46331789  0.13176858     0.84900
C84         C  0.53100994  0.53842724  0.13521921     0.91200
C85         C  0.69605360  0.67676588  0.57719758    -0.02100
C86         C  0.82187003  0.80853382  0.70988725    -0.02100
C87         C  0.69359697  0.32584675  0.58540513    -0.02100
C88         C  0.81520732  0.17902250  0.70455740    -0.02100
C89         C  0.31575374  0.67857076  0.59577463    -0.02100
C90         C  0.19772322  0.81318971  0.72854243    -0.02100
C91         C  0.66581512  0.68595796  0.21236166    -0.02100
C92         C  0.80028815  0.80949780  0.07873899    -0.02100
C93         C  0.32069881  0.32192651  0.59718066    -0.02100
C94         C  0.19568572  0.18238236  0.72231028    -0.02100
C95         C  0.31464498  0.68394977  0.21248702    -0.02100
C96         C  0.18168164  0.82239938  0.09815556    -0.02100
C97         C  0.68150045  0.32111008  0.20119913    -0.02100
C98         C  0.80397358  0.18514736  0.07007256    -0.02100
C99         C  0.31230959  0.31794058  0.20702148    -0.02100
C100        C  0.17737529  0.18554417  0.08745475    -0.02100
O101        O  0.24395733  0.97490907  0.87669207    -0.72600
O102        O  0.24312352  0.03214635  0.94219916    -0.73600
O103        O  0.24541919  0.03483894  0.88023762    -0.62200
O104        O  0.24131798  0.97188793  0.93937227    -0.70600
O105        O  0.28847485  0.97044705  0.94278939    -0.70200
O106        O  0.29267730  0.03425158  0.88029107    -0.61400
O107        O  0.29050467  0.03236409  0.94372996    -0.73900
O108        O  0.29122585  0.97252578  0.87900755    -0.72700
Cu109      Cu  0.24196766  0.00342610  0.90958229     1.04600
Cu110      Cu  0.29253725  0.00228722  0.91155473     1.04300
C111        C  0.26758486  0.96500155  0.86719100     0.93600
C112        C  0.26646889  0.04155717  0.95302173     0.92700
C113        C  0.26913344  0.04446750  0.87044960     0.84900
C114        C  0.26384347  0.96144165  0.95105830     0.91200
O115        O  0.96789862  0.22605160  0.86706290    -0.72600
O116        O  0.02808508  0.22904371  0.92867921    -0.73600
O117        O  0.96827997  0.22976611  0.92977719    -0.62200
O118        O  0.02736184  0.22570606  0.86613014    -0.70600
O119        O  0.02895322  0.27354735  0.86382058    -0.70200
O120        O  0.96766580  0.27752691  0.92645270    -0.61400
O121        O  0.02869817  0.27674779  0.92718858    -0.73900
O122        O  0.96802586  0.27383436  0.86307165    -0.72700
Cu123      Cu  0.99785279  0.22609359  0.89807547     1.04600
Cu124      Cu  0.99833447  0.27720234  0.89503671     1.04300
C125        C  0.95893383  0.24914274  0.85477382     0.93600
C126        C  0.03795363  0.25297356  0.93803434     0.92700
C127        C  0.95874739  0.25407625  0.93834475     0.84900
C128        C  0.03740722  0.24893691  0.85487902     0.91200
O129        O  0.01733507  0.96311399  0.12402574    -0.72600
O130        O  0.95910595  0.02537142  0.11535949    -0.73600
O131        O  0.01964247  0.02408256  0.11919823    -0.62200
O132        O  0.95724406  0.96520656  0.11987145    -0.70600
O133        O  0.95442781  0.96684192  0.16890384    -0.70200
O134        O  0.01626406  0.02866426  0.16795847    -0.61400
O135        O  0.95498374  0.02819702  0.16418350    -0.73900
O136        O  0.01560021  0.96638718  0.17295537    -0.72700
Cu137      Cu  0.98855189  0.99437121  0.11806734     1.04600
Cu138      Cu  0.98535190  0.99767613  0.17033719     1.04300
C139        C  0.02534053  0.95436748  0.14961262     0.93600
C140        C  0.94691303  0.03580667  0.13815809     0.92700
C141        C  0.02761100  0.03609738  0.14319591     0.84900
C142        C  0.94565570  0.95692019  0.14410435     0.91200
O143        O  0.76322624  0.96800074  0.91395062    -0.72600
O144        O  0.75985423  0.02254537  0.84511155    -0.73600
O145        O  0.76349999  0.02867692  0.90712176    -0.62200
O146        O  0.75951389  0.96209007  0.85161286    -0.70600
O147        O  0.71215167  0.96368248  0.85179541    -0.70200
O148        O  0.71640346  0.02751182  0.91228687    -0.61400
O149        O  0.71276970  0.02513125  0.84893543    -0.73900
O150        O  0.71591508  0.96578920  0.91519018    -0.72700
Cu151      Cu  0.76309796  0.99528018  0.87936713     1.04600
Cu152      Cu  0.71256217  0.99552627  0.88219273     1.04300
C153        C  0.74024233  0.95805788  0.92530222     0.93600
C154        C  0.73603073  0.03265565  0.83618570     0.92700
C155        C  0.74068550  0.03849865  0.91864096     0.84900
C156        C  0.73544676  0.95285233  0.84237517     0.91200
O157        O  0.04094383  0.96657189  0.63998945    -0.72600
O158        O  0.98072995  0.02825619  0.63393747    -0.73600
O159        O  0.04189620  0.02751743  0.63694670    -0.62200
O160        O  0.97990008  0.96685577  0.63774543    -0.70600
O161        O  0.97869856  0.96929271  0.68676452    -0.70200
O162        O  0.03898756  0.02985175  0.68598738    -0.61400
O163        O  0.97878080  0.03046127  0.68297345    -0.73900
O164        O  0.03973238  0.96934789  0.68902956    -0.72700
Cu165      Cu  0.01088273  0.99721312  0.63541192     1.04600
Cu166      Cu  0.00892028  0.99975579  0.68785376     1.04300
C167        C  0.05029281  0.95866930  0.66538876     0.93600
C168        C  0.97019400  0.03909190  0.65746386     0.92700
C169        C  0.05041201  0.03786823  0.66162322     0.84900
C170        C  0.96930155  0.95874295  0.66260437     0.91200
O171        O  0.96978334  0.72517953  0.87515111    -0.72600
O172        O  0.02820105  0.72835019  0.94118928    -0.73600
O173        O  0.96735654  0.72480359  0.93826383    -0.62200
O174        O  0.03129368  0.72886863  0.87772753    -0.70600
O175        O  0.02923141  0.77644230  0.87890653    -0.70200
O176        O  0.96442171  0.77241762  0.93654952    -0.61400
O177        O  0.02406305  0.77601486  0.94169248    -0.73900
O178        O  0.96899910  0.77301818  0.87409759    -0.72700
Cu179      Cu  0.99929638  0.72505190  0.90801047     1.04600
Cu180      Cu  0.99662822  0.77603493  0.90772885     1.04300
C181        C  0.96013457  0.74882142  0.86440676     0.93600
C182        C  0.03474946  0.75280981  0.95219470     0.92700
C183        C  0.95572684  0.74819277  0.94685427     0.84900
C184        C  0.04071076  0.75346103  0.86906267     0.91200
C185        C  0.05989409  0.25202867  0.96182210    -0.11600
C186        C  0.07999019  0.27429315  0.96712041     0.03900
C187        C  0.10188823  0.26997650  0.98802947    -0.12200
C188        C  0.10380987  0.24396944  0.00398503     0.18700
C189        C  0.08296421  0.22258978  0.99984532    -0.09200
C190        C  0.06145875  0.22666973  0.97902578    -0.02200
H191        H  0.11783195  0.28659744  0.99130067     0.05200
C192        C  0.12824939  0.23780687  0.02364741     0.20700
H193        H  0.04603496  0.20949783  0.97603763     0.10400
C194        C  0.12637897  0.24402094  0.05380437    -0.15500
C195        C  0.14401673  0.22999052  0.07446585     0.03400
C196        C  0.16255724  0.20732116  0.06514161    -0.10900
C197        C  0.16800376  0.20624721  0.03417154    -0.00900
C198        C  0.15065280  0.22054778  0.01369218    -0.06000
H199        H  0.10983926  0.25838876  0.06152049     0.06400
H200        H  0.18493614  0.19335586  0.02510451     0.09800
Br201      Br  0.08339662  0.18683274  0.02153100    -0.05700
Br202      Br  0.07980876  0.31029319  0.94586600    -0.02700
Br203      Br  0.13835279  0.24101870  0.11492819     0.00200
Br204      Br  0.15657772  0.21378444  0.97223097    -0.04200
C205        C  0.26489492  0.06315770  0.97652733    -0.11600
C206        C  0.26690749  0.09280713  0.96989617     0.03900
C207        C  0.25776307  0.11301397  0.99070564    -0.12200
C208        C  0.24671837  0.10391939  0.01813912     0.18700
C209        C  0.24689025  0.07441202  0.02559083    -0.09200
C210        C  0.25579413  0.05423874  0.00473753    -0.02200
H211        H  0.25750195  0.13568879  0.98474402     0.05200
C212        C  0.23027941  0.12443569  0.03612849     0.20700
H213        H  0.25406186  0.03145018  0.00994555     0.10400
C214        C  0.20068157  0.12427540  0.03336964    -0.15500
C215        C  0.18361054  0.14304767  0.04955311     0.03400
C216        C  0.19611105  0.16338237  0.06955293    -0.10900
C217        C  0.22635626  0.16210612  0.07270452    -0.00900
C218        C  0.24318497  0.14344282  0.05594064    -0.06000
H219        H  0.19071223  0.10935072  0.01813199     0.06400
H220        H  0.23761382  0.17481894  0.08882193     0.09800
Br221      Br  0.23302992  0.06073403  0.06317736    -0.05700
Br222      Br  0.27901218  0.10644895  0.93168072    -0.02700
Br223      Br  0.14360782  0.13945985  0.04101957     0.00200
Br224      Br  0.28376186  0.14408449  0.06130366    -0.04200
C225        C  0.15491653  0.16632038  0.10476479    -0.11600
C226        C  0.16306082  0.14133492  0.12168349     0.03900
C227        C  0.14245334  0.12163082  0.13212522    -0.12200
C228        C  0.11337374  0.12528206  0.12607323     0.18700
C229        C  0.10475075  0.15031031  0.11096378    -0.09200
C230        C  0.12502696  0.17018790  0.10068237    -0.02200
H231        H  0.14931100  0.10260488  0.14418702     0.05200
C232        C  0.09272327  0.10157006  0.13283326     0.20700
H233        H  0.11649842  0.18712322  0.08729523     0.10400
C234        C  0.06972066  0.10616080  0.15225902    -0.15500
C235        C  0.04850583  0.08500849  0.15651191     0.03400
C236        C  0.05039430  0.05841209  0.14164163    -0.10900
C237        C  0.07367844  0.05372943  0.12272536    -0.00900
C238        C  0.09460086  0.07489977  0.11819399    -0.06000
H239        H  0.06772814  0.12668767  0.16332770     0.06400
H240        H  0.07531265  0.03360260  0.11083848     0.09800
Br241      Br  0.06556634  0.15696899  0.10043773    -0.05700
Br242      Br  0.20177137  0.13187730  0.13203065    -0.02700
Br243      Br  0.01595427  0.09478008  0.18013683     0.00200
Br244      Br  0.12412470  0.06698752  0.08993374    -0.04200
C245        C  0.29233605  0.29784603  0.18828380    -0.11600
C246        C  0.30319049  0.27629066  0.16880978     0.03900
C247        C  0.28452251  0.25857928  0.15270432    -0.12200
C248        C  0.25492190  0.26204168  0.15431431     0.18700
C249        C  0.24392624  0.28421363  0.17176839    -0.09200
C250        C  0.26225768  0.30163350  0.18820411    -0.02200
H251        H  0.29319525  0.24164476  0.13901616     0.05200
C252        C  0.23566015  0.24234051  0.13788090     0.20700
H253        H  0.25227768  0.31904072  0.19993376     0.10400
C254        C  0.21651067  0.22483499  0.15365106    -0.15500
C255        C  0.19647613  0.20724947  0.13927289     0.03400
C256        C  0.19672701  0.20510800  0.10752942    -0.10900
C257        C  0.21598901  0.22377310  0.09224277    -0.00900
C258        C  0.23496068  0.24202714  0.10686805    -0.06000
H259        H  0.21638120  0.22587870  0.17765390     0.06400
H260        H  0.21661721  0.22386052  0.06824565     0.09800
Br261      Br  0.20386865  0.29282392  0.17259070    -0.05700
Br262      Br  0.34291494  0.26743691  0.16421611    -0.02700
Br263      Br  0.16839242  0.19164600  0.16617736     0.00200
Br264      Br  0.25851562  0.26721283  0.08331812    -0.04200
C265        C  0.78791927  0.16413417  0.04834204    -0.11600
C266        C  0.75785109  0.16221440  0.04240952     0.03900
C267        C  0.74761237  0.14286278  0.02094039    -0.12200
C268        C  0.76594607  0.12444473  0.00567953     0.18700
C269        C  0.79507703  0.12496564  0.01231169    -0.09200
C270        C  0.80560254  0.14429301  0.03303916    -0.02200
H271        H  0.72494457  0.14184137  0.01632314     0.05200
C272        C  0.75482329  0.10448927  0.98289901     0.20700
H273        H  0.82843458  0.14434960  0.03668369     0.10400
C274        C  0.76214567  0.10933527  0.95309342    -0.15500
C275        C  0.75647808  0.08852287  0.93159384     0.03400
C276        C  0.74286868  0.06251803  0.93971003    -0.10900
C277        C  0.73386877  0.05843820  0.96911969    -0.00900
C278        C  0.73994670  0.07911108  0.99075521    -0.06000
H279        H  0.77344186  0.12885851  0.94679494     0.06400
H280        H  0.72353138  0.03843885  0.97560689     0.09800
Br281      Br  0.82161186  0.09918846  0.99396414    -0.05700
Br282      Br  0.72781526  0.18197335  0.06281040    -0.02700
Br283      Br  0.76795581  0.09639615  0.89145872     0.00200
Br284      Br  0.72984632  0.07066502  0.03110896    -0.04200
C285        C  0.82342924  0.20641523  0.05118825    -0.11600
C286        C  0.84077814  0.22845426  0.06421340     0.03900
C287        C  0.86159262  0.24285740  0.04717576    -0.12200
C288        C  0.86469020  0.23737548  0.01687446     0.18700
C289        C  0.84519308  0.21895363  0.00300772    -0.09200
C290        C  0.82453640  0.20466463  0.01972032    -0.02200
H291        H  0.87628907  0.25751073  0.05791426     0.05200
C292        C  0.89034159  0.24742715  0.00068282     0.20700
H293        H  0.80960958  0.19193255  0.00719868     0.10400
C294        C  0.91620366  0.23332986  0.00634930    -0.15500
C295        C  0.93943818  0.23686068  0.98726020     0.03400
C296        C  0.93689473  0.25458458  0.96185166    -0.10900
C297        C  0.91194635  0.27081698  0.95772073    -0.00900
C298        C  0.88870409  0.26737264  0.97699850    -0.06000
H299        H  0.91784644  0.21834905  0.02483974     0.06400
H300        H  0.90992602  0.28495324  0.93859492     0.09800
Br301      Br  0.84728687  0.21018451  0.96146775    -0.05700
Br302      Br  0.84047979  0.23748819  0.10580863    -0.02700
Br303      Br  0.97418709  0.21700314  0.99685225     0.00200
Br304      Br  0.85464579  0.28902350  0.96937782    -0.04200
C305        C  0.92316642  0.05656789  0.13411534    -0.11600
C306        C  0.90411763  0.05449015  0.10985819     0.03900
C307        C  0.88328191  0.07556671  0.10538170    -0.12200
C308        C  0.88065434  0.09881987  0.12475647     0.18700
C309        C  0.89841247  0.10011222  0.14992032    -0.09200
C310        C  0.91944742  0.07905433  0.15446877    -0.02200
H311        H  0.86945526  0.07420837  0.08616922     0.05200
C312        C  0.86117921  0.12262933  0.11630648     0.20700
H313        H  0.93344459  0.08074540  0.17349845     0.10400
C314        C  0.83168111  0.11826684  0.11651359    -0.15500
C315        C  0.81289577  0.13841013  0.10370424     0.03400
C316        C  0.82347791  0.16445586  0.08988844    -0.10900
C317        C  0.85372325  0.16781795  0.09029107    -0.00900
C318        C  0.87203741  0.14787817  0.10349625    -0.07200
H319        H  0.82326459  0.09833244  0.12563130     0.06400
H320        H  0.86454441  0.18464542  0.07883220     0.09800
Br321      Br  0.89486389  0.13049306  0.17822985    -0.05700
Br322      Br  0.90448918  0.02295761  0.08249832    -0.02700
Br323      Br  0.77354386  0.12602172  0.10396185     0.00200
Br324      Br  0.91238864  0.15489823  0.10038918    -0.04200
C325        C  0.78362780  0.20431542  0.08939962    -0.11600
C326        C  0.77194515  0.23113018  0.07905141     0.03900
C327        C  0.75753146  0.24943995  0.09852548    -0.12200
C328        C  0.74988730  0.24066095  0.12734437     0.18700
C329        C  0.75797996  0.21272519  0.13642191    -0.09200
C330        C  0.77680212  0.19659548  0.11907060    -0.02200
H331        H  0.75110977  0.27044507  0.09032982     0.05200
C332        C  0.73207334  0.26031916  0.14620722     0.20700
H333        H  0.78490106  0.17731802  0.12925433     0.10400
C334        C  0.71071990  0.27703291  0.13271420    -0.15500
C335        C  0.69596033  0.29858676  0.14799488     0.03400
C336        C  0.69794021  0.30022507  0.17979087    -0.10900
C337        C  0.71895009  0.28225701  0.19312167    -0.00900
C338        C  0.73735497  0.26492173  0.17657656    -0.06000
H339        H  0.70676480  0.27477793  0.10919431     0.06400
H340        H  0.72253584  0.28303298  0.21676470     0.09800
Br341      Br  0.74064622  0.19316038  0.16961841    -0.05700
Br342      Br  0.77137016  0.24409770  0.03835900    -0.02700
Br343      Br  0.67908496  0.32596693  0.12077421     0.00200
Br344      Br  0.77183013  0.25263395  0.19598020    -0.04200
C345        C  0.05451839  0.75479040  0.97749353    -0.11600
C346        C  0.08318120  0.74611437  0.97528672     0.03900
C347        C  0.10238532  0.75265308  0.99812210    -0.12200
C348        C  0.09328509  0.76744941  0.02344469     0.18700
C349        C  0.06415836  0.77429719  0.02646266    -0.09200
C350        C  0.04513345  0.76825796  0.00343214    -0.02200
H351        H  0.12477768  0.74764794  0.99535406     0.05200
C352        C  0.11485624  0.78006282  0.04362082     0.20700
H353        H  0.02303156  0.77473373  0.00546502     0.10400
C354        C  0.11761151  0.80997830  0.04398023    -0.15500
C355        C  0.13827957  0.82357141  0.06116043     0.03400
C356        C  0.15802432  0.80707072  0.07869894    -0.10900
C357        C  0.15380914  0.77669061  0.07910096    -0.00900
C358        C  0.13308274  0.76332079  0.06138982    -0.06000
H359        H  0.10363048  0.82301544  0.03022649     0.06400
H360        H  0.16606722  0.76274887  0.09343942     0.09800
Br361      Br  0.04963393  0.79272404  0.06129135    -0.05700
Br362      Br  0.09764114  0.72821449  0.94021554    -0.02700
Br363      Br  0.13830336  0.86494185  0.05730846     0.00200
Br364      Br  0.12987312  0.72210995  0.06281177    -0.04200
C365        C  0.20343039  0.83847355  0.07672481    -0.11600
C366        C  0.22905375  0.85255310  0.08629790     0.03900
C367        C  0.24433848  0.87053299  0.06651312    -0.12200
C368        C  0.23643714  0.87273321  0.03666319     0.18700
C369        C  0.21584718  0.85377422  0.02578719    -0.09200
C370        C  0.20049325  0.83632560  0.04535631    -0.02200
H371        H  0.26158662  0.88382346  0.07477532     0.05200
C372        C  0.24650038  0.89698229  0.01783629     0.20700
H373        H  0.18578429  0.82160226  0.03508016     0.10400
C374        C  0.27127200  0.89447472  0.00053216    -0.15500
C375        C  0.27817988  0.91558305  0.97906204     0.03400
C376        C  0.26021698  0.93971271  0.97505525    -0.10900
C377        C  0.23612669  0.94244050  0.99325895    -0.00900
C378        C  0.22903398  0.92134482  0.01409685    -0.06000
H379        H  0.28443054  0.87542087  0.00270214     0.06400
H380        H  0.22203828  0.96076795  0.99060926     0.09800
Br381      Br  0.20676849  0.85215801  0.98429852    -0.05700
Br382      Br  0.24403647  0.85076515  0.12595780    -0.02700
Br383      Br  0.31036558  0.90878737  0.95389111     0.00200
Br384      Br  0.19377861  0.92587432  0.03503215    -0.04200
C385        C  0.04624178  0.93040184  0.15176564    -0.11600
C386        C  0.04699936  0.90833674  0.13031086     0.03900
C387        C  0.06928801  0.88840973  0.13037761    -0.12200
C388        C  0.09093030  0.88951995  0.15175763     0.18700
C389        C  0.08908969  0.90998227  0.17456805    -0.09200
C390        C  0.06680378  0.93017169  0.17451945    -0.02200
H391        H  0.07039092  0.87263579  0.11282430     0.05200
C392        C  0.11712708  0.87247695  0.14646595     0.20700
H393        H  0.06628155  0.94645971  0.19157283     0.10400
C394        C  0.14128265  0.88705276  0.13633370    -0.15500
C395        C  0.16400881  0.87267155  0.12275977     0.03400
C396        C  0.16311273  0.84185665  0.11922346    -0.10900
C397        C  0.13977432  0.82750839  0.13346888    -0.00900
C398        C  0.11694582  0.84234743  0.14610189    -0.06000
H399        H  0.14139076  0.91042203  0.13697285     0.06400
H400        H  0.13843913  0.80420112  0.13315519     0.09800
Br401      Br  0.11686167  0.91125638  0.20575916    -0.05700
Br402      Br  0.01811603  0.90373090  0.10045369    -0.02700
Br403      Br  0.19187933  0.89970683  0.10885548     0.00200
Br404      Br  0.08527800  0.82061019  0.16136503    -0.04200
C405        C  0.29487427  0.70329197  0.19271368    -0.11600
C406        C  0.27461637  0.69161165  0.17216004     0.03900
C407        C  0.25694493  0.70990787  0.15538224    -0.12200
C408        C  0.25958385  0.73985880  0.15696887     0.18700
C409        C  0.28130195  0.75159279  0.17458134    -0.09200
C410        C  0.29838434  0.73364861  0.19207617    -0.02200
H411        H  0.24046434  0.70066050  0.14151325     0.05200
C412        C  0.23837945  0.75880288  0.14209193     0.20700
H413        H  0.31510815  0.74403592  0.20449765     0.10400
C414        C  0.22140608  0.77642685  0.15969188    -0.15500
C415        C  0.20335704  0.79736807  0.14744192     0.03400
C416        C  0.20006381  0.79966825  0.11576833    -0.10900
C417        C  0.21701564  0.78075558  0.09849929    -0.00900
C418        C  0.23600636  0.76095424  0.11119204    -0.06000
H419        H  0.22366866  0.77500418  0.18359182     0.06400
H420        H  0.21588758  0.78183378  0.07453296     0.09800
Br421      Br  0.28939681  0.79220235  0.17445905    -0.05700
Br422      Br  0.26711848  0.65116596  0.16698693    -0.02700
Br423      Br  0.18979135  0.82347791  0.17733793     0.00200
Br424      Br  0.25968938  0.73878996  0.08533096    -0.04200
C425        C  0.07362487  0.05925702  0.66278124    -0.11600
C426        C  0.09920193  0.05617373  0.64662811     0.03900
C427        C  0.12174243  0.07556921  0.65116773    -0.12200
C428        C  0.11916141  0.09786356  0.67178921     0.18700
C429        C  0.09352275  0.10102327  0.68766000    -0.09200
C430        C  0.07109717  0.08184280  0.68304873    -0.02200
H431        H  0.14154961  0.07286061  0.63916450     0.05200
C432        C  0.14335229  0.11735813  0.67768526     0.20700
H433        H  0.05170214  0.08425547  0.69584779     0.10400
C434        C  0.14088005  0.14631548  0.66964765    -0.15500
C435        C  0.15886795  0.16715288  0.68175442     0.03400
C436        C  0.18049979  0.15914991  0.70267812    -0.10900
C437        C  0.18484245  0.12914687  0.70720817    -0.00900
C438        C  0.16636812  0.10855669  0.69534029    -0.06000
H439        H  0.12339376  0.15302322  0.65546790     0.06400
H440        H  0.20036707  0.12106540  0.72271882     0.09800
Br441      Br  0.08853574  0.13021200  0.71715604    -0.05700
Br442      Br  0.10552400  0.02445502  0.62042441    -0.02700
Br443      Br  0.15041207  0.20604721  0.66952775     0.00200
Br444      Br  0.17108256  0.06905284  0.70738825    -0.04200
C445        C  0.21751439  0.16890961  0.74506762    -0.11600
C446        C  0.24174252  0.15211414  0.73641346     0.03900
C447        C  0.25696769  0.13614220  0.75758657    -0.12200
C448        C  0.24962433  0.13696709  0.78747591     0.18700
C449        C  0.22931868  0.15691936  0.79690800    -0.09200
C450        C  0.21412368  0.17306945  0.77604930    -0.02200
H451        H  0.27305994  0.12101586  0.75037212     0.05200
C452        C  0.25727492  0.11236894  0.80668531     0.20700
H453        H  0.19867794  0.18794797  0.78476292     0.10400
C454        C  0.28268916  0.11194580  0.82316629    -0.15500
C455        C  0.28835170  0.08913347  0.84308119     0.03400
C456        C  0.26785034  0.06698813  0.84705163    -0.10900
C457        C  0.24330399  0.06714206  0.82923082    -0.00900
C458        C  0.23816301  0.08914708  0.80903240    -0.06000
H459        H  0.29779584  0.12954007  0.82092664     0.06400
H460        H  0.22753306  0.05012950  0.83126717     0.09800
Br461      Br  0.21940865  0.16047497  0.83800055    -0.05700
Br462      Br  0.25386960  0.14536159  0.69644422    -0.02700
Br463      Br  0.32350638  0.09018407  0.86479070     0.00200
Br464      Br  0.20426643  0.08644584  0.78542487    -0.04200
C465        C  0.05869281  0.24690999  0.83109161    -0.11600
C466        C  0.08685406  0.25676956  0.83495949     0.03900
C467        C  0.10746467  0.25096264  0.81338107    -0.12200
C468        C  0.10031987  0.23548142  0.78781828     0.18700
C469        C  0.07175692  0.22700346  0.78327893    -0.09200
C470        C  0.05125696  0.23257556  0.80495394    -0.02200
H471        H  0.12947421  0.25694444  0.81742724     0.05200
C472        C  0.12347310  0.22324998  0.76962907     0.20700
H473        H  0.02957659  0.22503235  0.80175635     0.10400
C474        C  0.12811085  0.19372301  0.77179837    -0.15500
C475        C  0.15072692  0.18056327  0.75728581     0.03400
C476        C  0.16995377  0.19702790  0.73897698    -0.10900
C477        C  0.16370591  0.22688952  0.73592796    -0.00900
C478        C  0.14164165  0.24003888  0.75183391    -0.06000
H479        H  0.11427686  0.18076703  0.78587394     0.06400
H480        H  0.17561345  0.24060838  0.72103344     0.09800
Br481      Br  0.06009588  0.20664210  0.74840512    -0.05700
Br482      Br  0.09882625  0.27515378  0.87079619    -0.02700
Br483      Br  0.15350189  0.14019833  0.76646231     0.00200
Br484      Br  0.13707642  0.28099705  0.74856605    -0.04200
C485        C  0.30317138  0.30032949  0.61704736    -0.11600
C486        C  0.30515462  0.29653785  0.64858954     0.03900
C487        C  0.28985863  0.27437699  0.66253979    -0.12200
C488        C  0.26722212  0.26024928  0.64838651     0.18700
C489        C  0.26168002  0.26751428  0.61857731    -0.09200
C490        C  0.28117714  0.28450789  0.60278690    -0.02200
H491        H  0.29409635  0.27006034  0.68575307     0.05200
C492        C  0.24845538  0.24057005  0.66622957     0.20700
H493        H  0.27739501  0.28730782  0.57929518     0.10400
C494        C  0.24235106  0.24749539  0.69582233    -0.15500
C495        C  0.22753553  0.22853768  0.71451826     0.03400
C496        C  0.21361130  0.20380013  0.70270896    -0.10900
C497        C  0.21946318  0.19753206  0.67253361    -0.00900
C498        C  0.23829838  0.21408451  0.65544047    -0.06000
H499        H  0.25020789  0.26742770  0.70513141     0.06400
H500        H  0.21182177  0.17793174  0.66249697     0.09800
Br501      Br  0.22565497  0.26002425  0.59964656    -0.05700
Br502      Br  0.32191148  0.32232201  0.67714117    -0.02700
Br503      Br  0.22831133  0.23866241  0.75581036     0.00200
Br504      Br  0.25302873  0.19642161  0.62016912    -0.04200
C505        C  0.93242661  0.74805549  0.96922839    -0.11600
C506        C  0.91321172  0.72472846  0.97343816     0.03900
C507        C  0.89048197  0.72726263  0.99358145    -0.12200
C508        C  0.88647758  0.75273843  0.00955333     0.18700
C509        C  0.90590806  0.77562412  0.00580934    -0.09200
C510        C  0.92860313  0.77308760  0.98608379    -0.02200
H511        H  0.87514485  0.70986271  0.99576649     0.05200
C512        C  0.85991438  0.75765728  0.02637772     0.20700
H513        H  0.94298760  0.79124798  0.98342372     0.10400
C514        C  0.85921348  0.75395928  0.05723286    -0.15500
C515        C  0.83793770  0.76720679  0.07436259     0.03400
C516        C  0.81850952  0.78697909  0.06067059    -0.10900
C517        C  0.81682670  0.78574658  0.02921317    -0.00900
C518        C  0.83712972  0.77152405  0.01234441    -0.06000
H519        H  0.87626261  0.74229704  0.06819159     0.06400
H520        H  0.80000643  0.79636852  0.01700066     0.09800
Br521      Br  0.90101607  0.81183380  0.02542942    -0.05700
Br522      Br  0.91499067  0.69006475  0.95059947    -0.02700
Br523      Br  0.84021643  0.76097037  0.11648689     0.00200
Br524      Br  0.83437561  0.77397929  0.96991711    -0.04200
C525        C  0.78462791  0.83051318  0.05649285    -0.11600
C526        C  0.75460676  0.83595566  0.05334345     0.03900
C527        C  0.74495145  0.85645155  0.03239742    -0.12200
C528        C  0.76388899  0.87167739  0.01400602     0.18700
C529        C  0.79314306  0.86627653  0.01657264    -0.09200
C530        C  0.80305834  0.84700331  0.03789309    -0.02200
H531        H  0.72234960  0.86104637  0.03080938     0.05200
C532        C  0.75347510  0.89439961  0.99331674     0.20700
H533        H  0.82592523  0.84398315  0.03919242     0.10400
C534        C  0.76304129  0.92282360  0.99729337    -0.15500
C535        C  0.75795807  0.94407482  0.97581015     0.03400
C536        C  0.74227606  0.93731087  0.95014995    -0.10900
C537        C  0.73085009  0.90948153  0.94712313    -0.00900
C538        C  0.73653711  0.88795593  0.96836288    -0.06000
H539        H  0.77570223  0.92816038  0.01660653     0.06400
H540        H  0.71885672  0.90404520  0.92739312     0.09800
Br541      Br  0.82077629  0.88359991  0.99042595    -0.05700
Br542      Br  0.72432468  0.82011875  0.07728967    -0.02700
Br543      Br  0.77323815  0.98195288  0.98231994     0.00200
Br544      Br  0.72290642  0.84965927  0.96097556    -0.04200
C545        C  0.92121521  0.93665842  0.14239489    -0.11600
C546        C  0.91741668  0.91304605  0.16199332     0.03900
C547        C  0.89563817  0.89285273  0.15659610    -0.12200
C548        C  0.87734851  0.89603701  0.13208470     0.18700
C549        C  0.88017705  0.92045227  0.11362544    -0.09200
C550        C  0.90197582  0.94031619  0.11877815    -0.02200
H551        H  0.89376218  0.87395319  0.17074680     0.05200
C552        C  0.85821621  0.87215849  0.12320776     0.20700
H553        H  0.90434554  0.95844073  0.10367751     0.10400
C554        C  0.82870698  0.87497221  0.12587403    -0.15500
C555        C  0.80994686  0.85510085  0.11284806     0.03400
C556        C  0.82051657  0.83069908  0.09677339    -0.10900
C557        C  0.85073431  0.82912773  0.09418506    -0.00900
C558        C  0.86914386  0.84872137  0.10768439    -0.06000
H559        H  0.82016239  0.89358685  0.13715622     0.06400
H560        H  0.86111290  0.81381877  0.08019379     0.09800
Br561      Br  0.85614424  0.92648199  0.07963661    -0.05700
Br562      Br  0.94283789  0.90573795  0.19451851    -0.02700
Br563      Br  0.77037222  0.86477380  0.11745482     0.00200
Br564      Br  0.90947701  0.84389519  0.10209051    -0.04200
C565        C  0.78012771  0.79113533  0.09937017    -0.11600
C566        C  0.76382391  0.76710798  0.08891293     0.03900
C567        C  0.74763088  0.75020956  0.10859870    -0.12200
C568        C  0.74371496  0.75801007  0.13827531     0.18700
C569        C  0.75957774  0.78163311  0.14895245    -0.09200
C570        C  0.77878648  0.79613958  0.13032061    -0.02200
H571        H  0.73683497  0.73132859  0.10012898     0.05200
C572        C  0.72326690  0.74107569  0.15727387     0.20700
H573        H  0.79207601  0.81193642  0.14084155     0.10400
C574        C  0.73084783  0.73298803  0.18625888    -0.15500
C575        C  0.71185654  0.71823674  0.20502281     0.03400
C576        C  0.68609297  0.70614999  0.19351023    -0.10900
C577        C  0.67895737  0.71423596  0.16401560    -0.00900
C578        C  0.69620163  0.73246849  0.14682674    -0.06000
H579        H  0.75170454  0.73853698  0.19477299     0.06400
H580        H  0.65870151  0.70820870  0.15445356     0.09800
Br581      Br  0.75471402  0.79740323  0.18792727    -0.05700
Br582      Br  0.75930504  0.75658798  0.04803495    -0.02700
Br583      Br  0.72402514  0.71519117  0.24567718     0.00200
Br584      Br  0.67984624  0.74690621  0.11050207    -0.04200
C585        C  0.18002646  0.79432254  0.75157747    -0.11600
C586        C  0.16088910  0.77180547  0.74272252     0.03900
C587        C  0.14006728  0.76130336  0.76252985    -0.12200
C588        C  0.13846714  0.77146248  0.79158940     0.18700
C589        C  0.16037758  0.78930921  0.80203827    -0.09200
C590        C  0.18109248  0.79987840  0.78251078    -0.02200
H591        H  0.12390742  0.74649200  0.75462872     0.05200
C592        C  0.11263185  0.76578749  0.80981823     0.20700
H593        H  0.19758183  0.81310885  0.79210021     0.10400
C594        C  0.10778410  0.73851537  0.82251770    -0.15500
C595        C  0.08425587  0.73345344  0.84124925     0.03400
C596        C  0.06500742  0.75615040  0.84765840    -0.10900
C597        C  0.06962690  0.78310831  0.83382862    -0.00900
C598        C  0.09290166  0.78795620  0.81507078    -0.06000
H599        H  0.12270610  0.72124051  0.81831874     0.06400
H600        H  0.05507129  0.80077799  0.83764299     0.09800
Br601      Br  0.16211833  0.80098445  0.84273599    -0.05700
Br602      Br  0.15815090  0.75736312  0.70302179    -0.02700
Br603      Br  0.08073892  0.69537642  0.85786688     0.00200
Br604      Br  0.09672105  0.82534365  0.79682452    -0.04200
C605        C  0.21574321  0.83687867  0.74508501    -0.11600
C606        C  0.24622124  0.84097195  0.74535662     0.03900
C607        C  0.25838522  0.86270480  0.76291995    -0.12200
C608        C  0.24153787  0.88159390  0.77928263     0.18700
C609        C  0.21180563  0.87946161  0.77723124    -0.09200
C610        C  0.19948127  0.85777443  0.76046579    -0.02200
H611        H  0.28136735  0.86526854  0.76351701     0.05200
C612        C  0.25480844  0.90331136  0.79885654     0.20700
H613        H  0.17641420  0.85657390  0.76040801     0.10400
C614        C  0.24996283  0.93262935  0.79303040    -0.15500
C615        C  0.25554475  0.95328628  0.81462874     0.03400
C616        C  0.26702889  0.94483326  0.84221116    -0.10900
C617        C  0.27467677  0.91596394  0.84689319    -0.00900
C618        C  0.26851876  0.89513564  0.82546496    -0.06000
H619        H  0.23990292  0.93919596  0.77242223     0.06400
H620        H  0.28364238  0.90929808  0.86800377     0.09800
Br621      Br  0.18653824  0.90467896  0.79817912    -0.05700
Br622      Br  0.27422708  0.82202339  0.72116139    -0.02700
Br623      Br  0.24583687  0.99256329  0.80593005     0.00200
Br624      Br  0.27653152  0.85555921  0.83481392    -0.04200
C625        C  0.07402631  0.93766487  0.66754705    -0.11600
C626        C  0.07544058  0.91301048  0.64942943     0.03900
C627        C  0.09754690  0.89303088  0.65341327    -0.12200
C628        C  0.11860147  0.89726230  0.67507866     0.18700
C629        C  0.11805813  0.92257772  0.69207736    -0.09200
C630        C  0.09580311  0.94236997  0.68840270    -0.02200
H631        H  0.09755245  0.87340917  0.64055716     0.05200
C632        C  0.13782942  0.87318924  0.68337519     0.20700
H633        H  0.09536839  0.96142018  0.70212736     0.10400
C634        C  0.16684146  0.87411782  0.67637748    -0.15500
C635        C  0.18607654  0.85393658  0.68841280     0.03400
C636        C  0.17647283  0.83164459  0.70845116    -0.10900
C637        C  0.14651997  0.83088026  0.71375061    -0.00900
C638        C  0.12767431  0.85078553  0.70139065    -0.06000
H639        H  0.17479936  0.89151796  0.66245648     0.06400
H640        H  0.13678731  0.81647703  0.72949483     0.09800
Br641      Br  0.14638629  0.93010279  0.72181231    -0.05700
Br642      Br  0.04634498  0.90396538  0.62100811    -0.02700
Br643      Br  0.22518513  0.86072611  0.67759159     0.00200
Br644      Br  0.08817837  0.84817081  0.71256144    -0.04200
C645        C  0.29617540  0.69487412  0.61834083    -0.11600
C646        C  0.26548859  0.69641441  0.61815074     0.03900
C647        C  0.25125903  0.71305417  0.63920220    -0.12200
C648        C  0.26588201  0.73076719  0.65894794     0.18700
C649        C  0.29578010  0.72985166  0.65944864    -0.09200
C650        C  0.31038531  0.71209033  0.63969911    -0.02200
H651        H  0.22815169  0.71396810  0.63873416     0.05200
C652        C  0.24927004  0.75182037  0.67658330     0.20700
H653        H  0.33347564  0.71230700  0.64051604     0.10400
C654        C  0.24942741  0.75041048  0.70756645    -0.15500
C655        C  0.23368151  0.76993772  0.72461218     0.03400
C656        C  0.21632622  0.79153143  0.71059630    -0.10900
C657        C  0.21528210  0.79114866  0.67922032    -0.00900
C658        C  0.23215033  0.77264459  0.66249480    -0.06000
H659        H  0.26231259  0.73422115  0.71863519     0.06400
H660        H  0.20126918  0.80513831  0.66689364     0.09800
Br661      Br  0.31789591  0.75389955  0.68518217    -0.05700
Br662      Br  0.23931936  0.68230991  0.58850738    -0.02700
Br663      Br  0.23956574  0.76660282  0.76671950     0.00200
Br664      Br  0.23174442  0.77774084  0.62014849    -0.04200
C665        C  0.79078326  0.16294371  0.72195983    -0.11600
C666        C  0.77051497  0.14472251  0.70740066     0.03900
C667        C  0.75249232  0.12654097  0.72404130    -0.12200
C668        C  0.75353434  0.12608255  0.75505172     0.18700
C669        C  0.77040745  0.14665553  0.76956559    -0.09200
C670        C  0.78793570  0.16518317  0.75317485    -0.02200
H671        H  0.73943843  0.11078948  0.71268348     0.05200
C672        C  0.74324931  0.10024050  0.77142399     0.20700
H673        H  0.80030259  0.18040116  0.76574309     0.10400
C674        C  0.75860721  0.07462890  0.76794842    -0.15500
C675        C  0.75538203  0.05169109  0.78783502     0.03400
C676        C  0.73593828  0.05389048  0.81157221    -0.10900
C677        C  0.71821846  0.07825020  0.81310443    -0.00900
C678        C  0.72179878  0.10142339  0.79321378    -0.06000
H679        H  0.77442706  0.07299272  0.75062782     0.06400
H680        H  0.70275125  0.08003014  0.83082210     0.09800
Br681      Br  0.77374907  0.14777262  0.81200642    -0.05700
Br682      Br  0.76896997  0.13906073  0.66530148    -0.02700
Br683      Br  0.77877881  0.01832845  0.78161904     0.00200
Br684      Br  0.69785519  0.13459290  0.79714078    -0.04200
C685        C  0.83753790  0.19454713  0.72508309    -0.11600
C686        C  0.84905519  0.22307178  0.72083427     0.03900
C687        C  0.86834665  0.23450988  0.74150093    -0.12200
C688        C  0.87838786  0.21802328  0.76529507     0.18700
C689        C  0.86947999  0.18932906  0.76821158    -0.09200
C690        C  0.85028274  0.17781798  0.74792248    -0.02200
H691        H  0.87663199  0.25614977  0.73827747     0.05200
C692        C  0.89991194  0.23010754  0.78566571     0.20700
H693        H  0.84445307  0.15553046  0.75094701     0.10400
C694        C  0.89134890  0.24814991  0.80886109    -0.15500
C695        C  0.91080957  0.25638199  0.83090740     0.03400
C696        C  0.93906136  0.24627871  0.82979856    -0.10900
C697        C  0.94785471  0.22959018  0.80574261    -0.00900
C698        C  0.92865124  0.22175928  0.78361419    -0.06000
H699        H  0.86926772  0.25475741  0.81051114     0.06400
H700        H  0.96963441  0.22188536  0.80463992     0.09800
Br701      Br  0.88263646  0.16490465  0.79995099    -0.05700
Br702      Br  0.84450813  0.24738457  0.68630773    -0.02700
Br703      Br  0.89739194  0.27902456  0.86338720     0.00200
Br704      Br  0.94242558  0.19873007  0.75162329    -0.04200
C705        C  0.83461219  0.15686198  0.68741756    -0.11600
C706        C  0.83794902  0.12676887  0.69512205     0.03900
C707        C  0.85876085  0.10996551  0.68145585    -0.12200
C708        C  0.87887419  0.12187422  0.66234103     0.18700
C709        C  0.87661159  0.15107964  0.65454637    -0.09200
C710        C  0.85507790  0.16810792  0.66708126    -0.02200
H711        H  0.86133049  0.08763433  0.68828342     0.05200
C712        C  0.90477078  0.10444130  0.65657187     0.20700
H713        H  0.85526026  0.19084889  0.66178956     0.10400
C714        C  0.90391271  0.08218299  0.63570194    -0.15500
C715        C  0.92546505  0.06118722  0.63483966     0.03400
C716        C  0.94819283  0.06203878  0.65547788    -0.10900
C717        C  0.94928258  0.08478693  0.67577718    -0.00900
C718        C  0.92795390  0.10580347  0.67639160    -0.06000
H719        H  0.88571201  0.08032947  0.62102227     0.06400
H720        H  0.96652083  0.08588504  0.69174762     0.09800
Br721      Br  0.90342526  0.16880955  0.62799349    -0.05700
Br722      Br  0.82163189  0.10577591  0.72799287    -0.02700
Br723      Br  0.92098963  0.03023635  0.60723789     0.00200
Br724      Br  0.92995953  0.13457939  0.70657039    -0.04200
C725        C  0.79837781  0.20129719  0.68490889    -0.11600
C726        C  0.78122415  0.22335023  0.69803039     0.03900
C727        C  0.76528789  0.24232101  0.68042033    -0.12200
C728        C  0.76587682  0.24105839  0.64956080     0.18700
C729        C  0.78309238  0.22018138  0.63602992    -0.09200
C730        C  0.79833416  0.20024946  0.65344387    -0.02200
H731        H  0.75240942  0.25863898  0.69101579     0.05200
C732        C  0.74827172  0.26199018  0.63236982     0.20700
H733        H  0.80966396  0.18369368  0.64174059     0.10400
C734        C  0.75345948  0.29156725  0.63528476    -0.15500
C735        C  0.73610019  0.31223168  0.62132625     0.03400
C736        C  0.71306354  0.30362167  0.60252062    -0.10900
C737        C  0.70753210  0.27348690  0.60121063    -0.00900
C738        C  0.72453817  0.25310658  0.61582839    -0.06000
H739        H  0.77106600  0.29868855  0.64900638     0.06400
H740        H  0.68917390  0.26508853  0.58970703     0.09800
Br741      Br  0.78750849  0.21879139  0.59376372    -0.05700
Br742      Br  0.77945728  0.23169504  0.73965261    -0.02700
Br743      Br  0.74625583  0.35158178  0.62933437     0.00200
Br744      Br  0.71284289  0.21341677  0.61452448    -0.04200
C745        C  0.83514245  0.78837522  0.73472719    -0.11600
C746        C  0.85445970  0.76536058  0.72839659     0.03900
C747        C  0.87091614  0.75300658  0.75110038    -0.12200
C748        C  0.86827873  0.76191392  0.78047154     0.18700
C749        C  0.84613359  0.78084502  0.78773717    -0.09200
C750        C  0.82916334  0.79274279  0.76527063    -0.02200
H751        H  0.88752221  0.73780474  0.74545781     0.05200
C752        C  0.89195643  0.75572031  0.80138476     0.20700
H753        H  0.81226758  0.80680398  0.77234942     0.10400
C754        C  0.91846395  0.76874369  0.79561734    -0.15500
C755        C  0.94134139  0.76534520  0.81516164     0.03400
C756        C  0.93797534  0.74872833  0.84117534    -0.10900
C757        C  0.91193642  0.73443714  0.84632010    -0.00900
C758        C  0.88895037  0.73778427  0.82659829    -0.06000
H759        H  0.92122281  0.78208061  0.77596898     0.06400
H760        H  0.90915175  0.72148780  0.86622351     0.09800
Br761      Br  0.84021335  0.79406575  0.82748229    -0.05700
Br762      Br  0.86417016  0.75224979  0.68944078    -0.02700
Br763      Br  0.97704343  0.78323596  0.80499098     0.00200
Br764      Br  0.85410734  0.71750220  0.83488239    -0.04200
C765        C  0.80336253  0.83320961  0.72414569    -0.11600
C766        C  0.81548067  0.85404588  0.74389749     0.03900
C767        C  0.79802063  0.87303290  0.75922704    -0.12200
C768        C  0.76847438  0.87257373  0.75596409     0.18700
C769        C  0.75638811  0.85524995  0.73398965    -0.09200
C770        C  0.77378732  0.83650457  0.71782385    -0.02200
H771        H  0.80751647  0.88738957  0.77534554     0.05200
C772        C  0.75153794  0.88922963  0.77750481     0.20700
H773        H  0.76346696  0.82414320  0.70075050     0.10400
C774        C  0.73868079  0.91525278  0.76882678    -0.15500
C775        C  0.73018359  0.93529219  0.79019230     0.03400
C776        C  0.73532898  0.92958535  0.82046357    -0.10900
C777        C  0.74580629  0.90257926  0.82912263    -0.00900
C778        C  0.75340461  0.88224473  0.80793318    -0.06000
H779        H  0.73707564  0.92083149  0.74551510     0.06400
H780        H  0.74954280  0.89788973  0.85238285     0.09800
Br781      Br  0.71616152  0.85534660  0.72637696    -0.05700
Br782      Br  0.85499753  0.85712165  0.75502601    -0.02700
Br783      Br  0.71437913  0.97126799  0.77704350     0.00200
Br784      Br  0.76858331  0.84602579  0.82146482    -0.04200
C785        C  0.84551427  0.82558639  0.69206204    -0.11600
C786        C  0.83828650  0.84726666  0.67052291     0.03900
C787        C  0.85862353  0.86765006  0.66119989    -0.12200
C788        C  0.88661138  0.86669547  0.67170936     0.18700
C789        C  0.89500758  0.84366559  0.68987128    -0.09200
C790        C  0.87489528  0.82348354  0.69962571    -0.02200
H791        H  0.85224769  0.88512491  0.64655505     0.05200
C792        C  0.90588117  0.89155961  0.66694803     0.20700
H793        H  0.88263799  0.80837425  0.71588861     0.10400
C794        C  0.90549298  0.91390294  0.68762911    -0.15500
C795        C  0.92536355  0.93640340  0.68614493     0.03400
C796        C  0.94635474  0.93668613  0.66359581    -0.10900
C797        C  0.94585349  0.91484265  0.64214408    -0.00900
C798        C  0.92587741  0.89234045  0.64376997    -0.06000
H799        H  0.88992744  0.91351231  0.70539217     0.06400
H800        H  0.96160956  0.91473767  0.62458791     0.09800
Br801      Br  0.93324492  0.84082509  0.70493113    -0.05700
Br802      Br  0.80094642  0.85220873  0.65358636    -0.02700
Br803      Br  0.92182307  0.96641714  0.71503555     0.00200
Br804      Br  0.92709208  0.86258535  0.61460265    -0.04200
C805        C  0.71651032  0.69643785  0.59626995    -0.11600
C806        C  0.73152738  0.72072272  0.58431654     0.03900
C807        C  0.74821314  0.73834957  0.60274216    -0.12200
C808        C  0.75422091  0.73068783  0.63230474     0.18700
C809        C  0.74211697  0.70493415  0.64339842    -0.09200
C810        C  0.72256674  0.68941703  0.62634734    -0.02200
H811        H  0.75684843  0.75816779  0.59359455     0.05200
C812        C  0.77204304  0.75008551  0.65147699     0.20700
H813        H  0.71403387  0.67010923  0.63655341     0.10400
C814        C  0.76325031  0.75566085  0.68060003    -0.15500
C815        C  0.77975870  0.77217373  0.70003660     0.03400
C816        C  0.80383843  0.78810737  0.68941245    -0.10900
C817        C  0.81201284  0.78290763  0.65963423    -0.00900
C818        C  0.79749849  0.76325979  0.64153020    -0.06000
H819        H  0.74352423  0.74638974  0.68877464     0.06400
H820        H  0.83113144  0.79253512  0.65053859     0.09800
Br821      Br  0.75369650  0.68753928  0.68038326    -0.05700
Br822      Br  0.73037481  0.73223432  0.54327991    -0.02700
Br823      Br  0.76695851  0.77152614  0.74058992     0.00200
Br824      Br  0.81567049  0.75305201  0.60491862    -0.04200
C825        C  0.65928207  0.34151909  0.18554258    -0.11600
C826        C  0.65610573  0.37201192  0.18989375     0.03900
C827        C  0.63449332  0.38728018  0.17525881    -0.12200
C828        C  0.61372824  0.37338437  0.15850105     0.18700
C829        C  0.61481553  0.34338592  0.15586522    -0.09200
C830        C  0.63673534  0.32787442  0.16978874    -0.02200
H831        H  0.63233528  0.41023890  0.17900158     0.05200
C832        C  0.58878970  0.39048507  0.14867145     0.20700
H833        H  0.63665035  0.30469415  0.16747032     0.10400
C834        C  0.59058745  0.40787867  0.12311801    -0.15500
C835        C  0.56958673  0.42861217  0.11676621     0.03400
C836        C  0.54655304  0.43245164  0.13660044    -0.10900
C837        C  0.54425076  0.41383815  0.16128463    -0.00900
C838        C  0.56502288  0.39314045  0.16740070    -0.06000
H839        H  0.60903412  0.40619279  0.10878805     0.06400
H840        H  0.52664705  0.41605854  0.17664475     0.09800
Br841      Br  0.58687189  0.32280660  0.13328562    -0.05700
Br842      Br  0.67358668  0.39522803  0.21991951    -0.02700
Br843      Br  0.57515187  0.45251107  0.08231115     0.00200
Br844      Br  0.56129063  0.37065681  0.20310116    -0.04200
C845        C  0.55281600  0.56133193  0.13720492    -0.11600
C846        C  0.54929963  0.58837150  0.12307250     0.03900
C847        C  0.56817400  0.61103505  0.12938217    -0.12200
C848        C  0.59071205  0.60708997  0.14947759     0.18700
C849        C  0.59457183  0.57986982  0.16299234    -0.09200
C850        C  0.57571342  0.55734750  0.15680382    -0.02200
H851        H  0.56464193  0.63207831  0.11946568     0.05200
C852        C  0.60775032  0.63211212  0.15941459     0.20700
H853        H  0.57836745  0.53684800  0.16816095     0.10400
C854        C  0.59545660  0.65125048  0.17929721    -0.15500
C855        C  0.61196489  0.67075554  0.19568071     0.03400
C856        C  0.64252794  0.67137942  0.19207624    -0.10900
C857        C  0.65367081  0.65373413  0.16915987    -0.00900
C858        C  0.63681205  0.63456537  0.15310936    -0.06000
H859        H  0.57279340  0.64937666  0.18376023     0.06400
H860        H  0.67636698  0.65370147  0.16471502     0.09800
Br861      Br  0.62372883  0.57307185  0.19215482    -0.05700
Br862      Br  0.51734588  0.59646733  0.09773224    -0.02700
Br863      Br  0.58879010  0.69042106  0.22424060     0.00200
Br864      Br  0.65466734  0.61082227  0.12392378    -0.04200
C865        C  0.43315018  0.56800455  0.13435644    -0.11600
C866        C  0.43802362  0.59070962  0.15435420     0.03900
C867        C  0.41669550  0.61094683  0.15947812    -0.12200
C868        C  0.39031673  0.60898853  0.14506174     0.18700
C869        C  0.38613781  0.58769937  0.12337722    -0.09200
C870        C  0.40761736  0.56739336  0.11805888    -0.02200
H871        H  0.42018643  0.62747952  0.17593832     0.05200
C872        C  0.36684143  0.62709352  0.15616040     0.20700
H873        H  0.40371439  0.55019099  0.10246505     0.10400
C874        C  0.36755311  0.65690075  0.15145638    -0.15500
C875        C  0.34974319  0.67539368  0.16745316     0.03400
C876        C  0.33107265  0.66412142  0.18988407    -0.10900
C877        C  0.32845091  0.63357979  0.19118491    -0.00900
C878        C  0.34645538  0.61542063  0.17551763    -0.06000
H879        H  0.38317986  0.66597105  0.13630857     0.06400
H880        H  0.31263882  0.62297336  0.20480022     0.09800
Br881      Br  0.35100180  0.58483944  0.10178661    -0.05700
Br882      Br  0.47327244  0.59491079  0.17568008    -0.02700
Br883      Br  0.35542763  0.71568649  0.15926425     0.00200
Br884      Br  0.34410624  0.57478186  0.18386518    -0.04200
C885        C  0.32966578  0.33558998  0.18315178    -0.11600
C886        C  0.31667821  0.35571040  0.16302162     0.03900
C887        C  0.33368212  0.37458360  0.14597069    -0.12200
C888        C  0.36346516  0.37378162  0.14774579     0.18700
C889        C  0.37638823  0.35166824  0.16424582    -0.09200
C890        C  0.35967365  0.33243395  0.18061643    -0.02200
H891        H  0.32359042  0.39156907  0.13312743     0.05200
C892        C  0.38051975  0.39911387  0.13823100     0.20700
H893        H  0.37100719  0.31570683  0.19240770     0.10400
C894        C  0.37941711  0.42371381  0.15597547    -0.15500
C895        C  0.39970506  0.44560284  0.15303537     0.03400
C896        C  0.42171058  0.44313675  0.13186388    -0.10900
C897        C  0.42116945  0.41983946  0.11211319    -0.00900
C898        C  0.40073841  0.39783506  0.11520837    -0.06000
H899        H  0.36356188  0.42524002  0.17331439     0.06400
H900        H  0.43752899  0.41793572  0.09529920     0.09800
Br901      Br  0.41707525  0.34894393  0.16853336    -0.05700
Br902      Br  0.27647556  0.36308998  0.16074122    -0.02700
Br903      Br  0.39617040  0.47822948  0.17875880     0.00200
Br904      Br  0.40187211  0.36584666  0.08860732    -0.04200
C905        C  0.43840316  0.25814027  0.46635536    -0.11600
C906        C  0.44542132  0.25308987  0.49632520     0.03900
C907        C  0.42485178  0.25748110  0.51843957    -0.12200
C908        C  0.39717468  0.26646989  0.51091595     0.18700
C909        C  0.38974659  0.26945149  0.48077639    -0.09200
C910        C  0.41036158  0.26555584  0.45881100    -0.02200
H911        H  0.43092279  0.25557706  0.54155334     0.05200
C912        C  0.37849690  0.27889748  0.53393260     0.20700
H913        H  0.40472984  0.26929868  0.43578954     0.10400
C914        C  0.37682961  0.30881399  0.53504176    -0.15500
C915        C  0.35853149  0.32261868  0.55455658     0.03400
C916        C  0.34090486  0.30632288  0.57463244    -0.10900
C917        C  0.34300121  0.27580741  0.57319228    -0.00900
C918        C  0.36172062  0.26225248  0.55337498    -0.06000
H919        H  0.38962125  0.32168393  0.51986007     0.06400
H920        H  0.33082459  0.26207975  0.58794200     0.09800
Br921      Br  0.35205623  0.28072809  0.46882908    -0.05700
Br922      Br  0.48343338  0.24292822  0.50807696    -0.02700
Br923      Br  0.35817106  0.36392933  0.54970020     0.00200
Br924      Br  0.36371971  0.22101334  0.55347277    -0.04200
C925        C  0.56416690  0.26980319  0.46001880    -0.11600
C926        C  0.57375558  0.24777201  0.47961626     0.03900
C927        C  0.59510173  0.25377933  0.50058795    -0.12200
C928        C  0.60754925  0.28122261  0.50215737     0.18700
C929        C  0.59911631  0.30266091  0.48181376    -0.09200
C930        C  0.57756912  0.29697387  0.46127522    -0.02200
H931        H  0.60174781  0.23708752  0.51603227     0.05200
C932        C  0.62859886  0.28788662  0.52562231     0.20700
H933        H  0.57129263  0.31408842  0.44616379     0.10400
C934        C  0.65753518  0.28314432  0.52058996    -0.15500
C935        C  0.67834195  0.29322152  0.54034550     0.03400
C936        C  0.67052726  0.30976566  0.56587431    -0.10900
C937        C  0.64074412  0.31277563  0.57097949    -0.00900
C938        C  0.62023394  0.30163085  0.55167413    -0.06000
H939        H  0.66403856  0.27206975  0.50067678     0.06400
H940        H  0.63241245  0.32534801  0.58867365     0.09800
Br941      Br  0.61648664  0.34016161  0.48125850    -0.05700
Br942      Br  0.55837990  0.20937217  0.47996246    -0.02700
Br943      Br  0.71675761  0.28314805  0.52970382     0.00200
Br944      Br  0.58067786  0.30693344  0.56109957    -0.04200
C945        C  0.55724465  0.26523151  0.33206799    -0.11600
C946        C  0.58550338  0.25571134  0.33632053     0.03900
C947        C  0.60591049  0.26027874  0.31401418    -0.12200
C948        C  0.59843756  0.27400742  0.28729128     0.18700
C949        C  0.56990122  0.28230350  0.28259683    -0.09200
C950        C  0.54965945  0.27819902  0.30501772    -0.02200
H951        H  0.62791110  0.25433852  0.31805568     0.05200
C952        C  0.62108804  0.28383307  0.26667124     0.20700
H953        H  0.52800024  0.28555999  0.30149301     0.10400
C954        C  0.63118722  0.26595022  0.24415595    -0.15500
C955        C  0.65100078  0.27600672  0.22287739     0.03400
C956        C  0.66158620  0.30502716  0.22424254    -0.10900
C957        C  0.65006323  0.32250112  0.24699558    -0.00900
C958        C  0.63113125  0.31213648  0.26823103    -0.06000
H959        H  0.62278228  0.24423550  0.24253617     0.06400
H960        H  0.65631029  0.34479955  0.24873463     0.09800
Br961      Br  0.55801367  0.30051790  0.24634365    -0.05700
Br962      Br  0.59782312  0.23913771  0.37328351    -0.02700
Br963      Br  0.65828997  0.24896603  0.19174737     0.00200
Br964      Br  0.61936170  0.33783696  0.29905598    -0.04200
C965        C  0.43297954  0.25573363  0.33834975    -0.11600
C966        C  0.43869810  0.25095566  0.30814062     0.03900
C967        C  0.41745964  0.25620640  0.28685981    -0.12200
C968        C  0.39032652  0.26579651  0.29538358     0.18700
C969        C  0.38402519  0.26847303  0.32575340    -0.09200
C970        C  0.40539979  0.26380928  0.34695134    -0.02200
H971        H  0.42257323  0.25429645  0.26353749     0.05200
C972        C  0.37069399  0.27759856  0.27261668     0.20700
H973        H  0.40079756  0.26760789  0.37013412     0.10400
C974        C  0.34956526  0.26036583  0.25980826    -0.15500
C975        C  0.32982314  0.27181705  0.23929234     0.03400
C976        C  0.33233519  0.30125906  0.22943775    -0.10900
C977        C  0.35283813  0.31827244  0.24457199    -0.00900
C978        C  0.37184319  0.30688517  0.26520471    -0.06000
H979        H  0.34763747  0.23807148  0.26690260     0.06400
H980        H  0.35461923  0.34100088  0.23988279     0.09800
Br981      Br  0.34705962  0.28046733  0.33895652    -0.05700
Br982      Br  0.47592880  0.23997432  0.29483194    -0.02700
Br983      Br  0.29854256  0.24610471  0.23119921     0.00200
Br984      Br  0.39881247  0.33262556  0.28320940    -0.04200
C985        C  0.26178478  0.56018108  0.46092579    -0.11600
C986        C  0.24314353  0.58381926  0.46374867     0.03900
C987        C  0.24763444  0.60383705  0.48639160    -0.12200
C988        C  0.27065228  0.60073376  0.50607078     0.18700
C989        C  0.28935070  0.57731281  0.50299693    -0.09200
C990        C  0.28479294  0.55733472  0.48064629    -0.02200
H991        H  0.23357094  0.62221869  0.48826558     0.05200
C992        C  0.27652063  0.62298118  0.52839618     0.20700
H993        H  0.29932312  0.53931310  0.47879532     0.10400
C994        C  0.27345518  0.61625526  0.55843863    -0.15500
C995        C  0.28396896  0.63464276  0.58033165     0.03400
C996        C  0.29849623  0.66085774  0.57237006    -0.10900
C997        C  0.29949578  0.66778457  0.54161236    -0.00900
C998        C  0.28858569  0.64940279  0.52005774    -0.06000
H999        H  0.26363375  0.59598046  0.56487756     0.06400
H1000       H  0.31067051  0.68620973  0.53314729     0.09800
Br1001     Br  0.32215933  0.57219966  0.52799199    -0.05700
Br1002     Br  0.21285590  0.59109791  0.43606298    -0.02700
Br1003     Br  0.27641522  0.62214713  0.62039313     0.00200
Br1004     Br  0.29345430  0.65992207  0.47907699    -0.04200
C1005       C  0.29763950  0.33934461  0.57892151    -0.11600
C1006       C  0.27749947  0.35858578  0.59180766     0.03900
C1007       C  0.26263217  0.37817520  0.57362123    -0.12200
C1008       C  0.26462034  0.37651673  0.54274006     0.18700
C1009       C  0.27847174  0.35298233  0.53012583    -0.09200
C1010       C  0.29423647  0.33447625  0.54803343    -0.02200
H1011       H  0.25059080  0.39547488  0.58357155     0.05200
C1012       C  0.25841195  0.40173823  0.52386226     0.20700
H1013       H  0.30464689  0.31686588  0.53694005     0.10400
C1014       C  0.28111985  0.42054731  0.51796471    -0.15500
C1015       C  0.27977195  0.44040005  0.49465461     0.03400
C1016       C  0.25516825  0.44154399  0.47647083    -0.10900
C1017       C  0.23148492  0.42422368  0.48404531    -0.00900
C1018       C  0.23302488  0.40430956  0.50754000    -0.06000
H1019       H  0.30068507  0.41868918  0.53066870     0.06400
H1020       H  0.21218557  0.42518852  0.47086523     0.09800
Br1021     Br  0.27904251  0.34700350  0.48803205    -0.05700
Br1022     Br  0.27083701  0.36148550  0.63366000    -0.02700
Br1023     Br  0.31250340  0.46500428  0.48936487     0.00200
Br1024     Br  0.20082879  0.37996579  0.51564506    -0.04200
C1025       C  0.29850798  0.66470128  0.23610721    -0.11600
C1026       C  0.26838193  0.66246807  0.24166253     0.03900
C1027       C  0.25788588  0.64025495  0.26012155    -0.12200
C1028       C  0.27625363  0.62144150  0.27514657     0.18700
C1029       C  0.30568506  0.62583978  0.27303163    -0.09200
C1030       C  0.31634527  0.64702991  0.25413546    -0.02200
H1031       H  0.23507756  0.63787228  0.26323341     0.05200
C1032       C  0.26487875  0.59760821  0.29366096     0.20700
H1033       H  0.33929240  0.64833853  0.25213426     0.10400
C1034       C  0.27055609  0.56905690  0.28539651    -0.15500
C1035       C  0.26518574  0.54615820  0.30500543     0.03400
C1036       C  0.25334883  0.55168724  0.33301929    -0.10900
C1037       C  0.24566000  0.57993022  0.34037500    -0.00900
C1038       C  0.25160167  0.60291816  0.32105278    -0.06000
H1039       H  0.28061432  0.56477041  0.26426779     0.06400
H1040       H  0.23684211  0.58436475  0.36206356     0.09800
Br1041     Br  0.33256627  0.60334329  0.29549848    -0.05700
Br1042     Br  0.23906764  0.68894764  0.22917570    -0.02700
Br1043     Br  0.27502135  0.50783528  0.29308723     0.00200
Br1044     Br  0.24416048  0.64131677  0.33441179    -0.04200
C1045       C  0.29526130  0.33779535  0.22885120    -0.11600
C1046       C  0.30028216  0.36793437  0.23410123     0.03900
C1047       C  0.28512124  0.38220851  0.25620689    -0.12200
C1048       C  0.26674080  0.36754875  0.27536567     0.18700
C1049       C  0.26215624  0.33807798  0.27156971    -0.09200
C1050       C  0.27644347  0.32360325  0.24902026    -0.02200
H1051       H  0.28964738  0.40476365  0.26037396     0.05200
C1052       C  0.25752995  0.38273128  0.30223417     0.20700
H1053       H  0.27312064  0.30060894  0.24756555     0.10400
C1054       C  0.23355072  0.40069547  0.30120946    -0.15500
C1055       C  0.22885743  0.42110897  0.32343640     0.03400
C1056       C  0.24876686  0.42388491  0.34678604    -0.10900
C1057       C  0.27140048  0.40415896  0.34881677    -0.00900
C1058       C  0.27591457  0.38379144  0.32681528    -0.06000
H1059       H  0.21948763  0.40007308  0.28215493     0.06400
H1060       H  0.28666960  0.40563075  0.36679659     0.09800
Br1061     Br  0.23770422  0.31653396  0.29767984    -0.05700
Br1062     Br  0.33063971  0.39179346  0.21877489    -0.02700
Br1063     Br  0.19693265  0.44650508  0.31866626     0.00200
Br1064     Br  0.30934843  0.36003717  0.32952422    -0.04200
C1065       C  0.67138930  0.69465966  0.56158806    -0.11600
C1066       C  0.65096769  0.68142440  0.54220679     0.03900
C1067       C  0.63028125  0.69779723  0.52769370    -0.12200
C1068       C  0.62737881  0.72717381  0.53265728     0.18700
C1069       C  0.64504773  0.74033482  0.55370654    -0.09200
C1070       C  0.66634641  0.72417502  0.56820808    -0.02200
H1071       H  0.61584781  0.68731738  0.51234645     0.05200
C1072       C  0.60414275  0.74222932  0.51652300     0.20700
H1073       H  0.67848456  0.73507631  0.58508295     0.10400
C1074       C  0.57600247  0.73677680  0.52551689    -0.15500
C1075       C  0.55309724  0.74202930  0.50634659     0.03400
C1076       C  0.55801764  0.75357404  0.47779916    -0.10900
C1077       C  0.58594616  0.76134359  0.46967634    -0.00900
C1078       C  0.60901494  0.75538212  0.48866573    -0.06000
H1079       H  0.57202909  0.72620559  0.54663880     0.06400
H1080       H  0.59009003  0.76981488  0.44762887     0.09800
Br1081     Br  0.64017958  0.78001496  0.56391798    -0.05700
Br1082     Br  0.64888822  0.64130890  0.53249830    -0.02700
Br1083     Br  0.51563063  0.73099697  0.51932904     0.00200
Br1084     Br  0.64698147  0.76217941  0.47432869    -0.04200
C1085       C  0.43169719  0.75419179  0.47568230    -0.11600
C1086       C  0.43343729  0.76999158  0.50218720     0.03900
C1087       C  0.41263975  0.76590490  0.52422714    -0.12200
C1088       C  0.38993203  0.74654050  0.51989184     0.18700
C1089       C  0.38703983  0.73285789  0.49230156    -0.09200
C1090       C  0.40793480  0.73655781  0.47065806    -0.02200
H1091       H  0.41505309  0.77653196  0.54537895     0.05200
C1092       C  0.37231148  0.73671161  0.54524498     0.20700
H1093       H  0.40619923  0.72464995  0.45016167     0.10400
C1094       C  0.34308958  0.74261471  0.54594303    -0.15500
C1095       C  0.32463889  0.72653207  0.56423748     0.03400
C1096       C  0.33533728  0.70272158  0.58125360    -0.10900
C1097       C  0.36542710  0.70222011  0.58509931    -0.00900
C1098       C  0.38365624  0.71758783  0.56633029    -0.06000
H1099       H  0.33433033  0.75842447  0.53066612     0.06400
H1100       H  0.37556610  0.68841972  0.60129564     0.09800
Br1101     Br  0.35651818  0.70657214  0.48397297    -0.05700
Br1102     Br  0.46508272  0.79492607  0.51051608    -0.02700
Br1103     Br  0.28516695  0.73689172  0.56140249     0.00200
Br1104     Br  0.42361791  0.70858138  0.56784061    -0.04200
C1105       C  0.65409869  0.70525730  0.23810169    -0.11600
C1106       C  0.63806522  0.73115826  0.23343094     0.03900
C1107       C  0.62305301  0.74349253  0.25713919    -0.12200
C1108       C  0.62470800  0.73157072  0.28564525     0.18700
C1109       C  0.64529825  0.71062409  0.29152807    -0.09200
C1110       C  0.66031903  0.69844128  0.26822084    -0.02200
H1111       H  0.60795875  0.76062590  0.25273158     0.05200
C1112       C  0.60136103  0.73613516  0.30700490     0.20700
H1113       H  0.67621048  0.68283273  0.27442182     0.10400
C1114       C  0.58178583  0.71358253  0.31122057    -0.15500
C1115       C  0.55979303  0.71566781  0.33188710     0.03400
C1116       C  0.55717516  0.74081676  0.34913536    -0.10900
C1117       C  0.57640199  0.76378011  0.34422545    -0.00900
C1118       C  0.59840160  0.76157175  0.32333369    -0.06000
H1119       H  0.58371738  0.69410260  0.29827914     0.06400
H1120       H  0.57471973  0.78329223  0.35711708     0.09800
Br1121     Br  0.65214788  0.69657250  0.33105234    -0.05700
Br1122     Br  0.63070420  0.74871782  0.19552205    -0.02700
Br1123     Br  0.53345841  0.68387039  0.33400812     0.00200
Br1124     Br  0.62451225  0.79312695  0.31858276    -0.04200
C1125       C  0.33648439  0.70162614  0.23226469    -0.11600
C1126       C  0.32736039  0.72011155  0.25576902     0.03900
C1127       C  0.34674663  0.73019305  0.27708399    -0.12200
C1128       C  0.37546684  0.72241257  0.27644945     0.18700
C1129       C  0.38518913  0.70515078  0.25327815    -0.09200
C1130       C  0.36618558  0.69519640  0.23171809    -0.02200
H1131       H  0.33907776  0.74332757  0.29515031     0.05200
C1132       C  0.39433578  0.72966328  0.30179638     0.20700
H1133       H  0.37509692  0.68018204  0.21625275     0.10400
C1134       C  0.39306786  0.71252780  0.32750791    -0.15500
C1135       C  0.41206041  0.71692261  0.35105377     0.03400
C1136       C  0.43284982  0.73908399  0.34925047    -0.10900
C1137       C  0.43324788  0.75699139  0.32392034    -0.00900
C1138       C  0.41437155  0.75228404  0.30024385    -0.06000
H1139       H  0.37754085  0.69522045  0.32900516     0.06400
H1140       H  0.44896447  0.77407191  0.32204461     0.09800
Br1141     Br  0.42395226  0.69199431  0.25187292    -0.05700
Br1142     Br  0.28865348  0.73149477  0.26266608    -0.02700
Br1143     Br  0.40781467  0.69234606  0.38529862     0.00200
Br1144     Br  0.41708020  0.77668205  0.26584518    -0.04200
C1145       C  0.75889455  0.55828376  0.44992503    -0.11600
C1146       C  0.74003390  0.55517805  0.47415065     0.03900
C1147       C  0.73641265  0.57785567  0.49392680    -0.12200
C1148       C  0.75120459  0.60391228  0.49017194     0.18700
C1149       C  0.77097297  0.60672374  0.46683875    -0.09200
C1150       C  0.77482757  0.58389349  0.44698713    -0.02200
H1151       H  0.72137864  0.57538984  0.51200337     0.05200
C1152       C  0.74399699  0.62794714  0.51018186     0.20700
H1153       H  0.78940573  0.58661908  0.42854261     0.10400
C1154       C  0.75285817  0.62684624  0.53973872    -0.15500
C1155       C  0.73960416  0.64370358  0.56148287     0.03400
C1156       C  0.71590043  0.66176708  0.55378495    -0.10900
C1157       C  0.71181731  0.66657330  0.52289105    -0.00900
C1158       C  0.72439044  0.64909330  0.50154821    -0.06000
H1159       H  0.76863066  0.61101749  0.54636729     0.06400
H1160       H  0.69764126  0.68300656  0.51460067     0.09800
Br1161     Br  0.79244364  0.64153317  0.46100077    -0.05700
Br1162     Br  0.71891974  0.52031842  0.48181743    -0.02700
Br1163     Br  0.75284901  0.63590877  0.60101603     0.00200
Br1164     Br  0.71171164  0.65301001  0.46123212    -0.04200
C1165       C  0.76610419  0.43334924  0.44770992    -0.11600
C1166       C  0.77477502  0.43940313  0.47692067     0.03900
C1167       C  0.76879888  0.41958883  0.49977265    -0.12200
C1168       C  0.75439114  0.39372423  0.49372160     0.18700
C1169       C  0.74770550  0.38685190  0.46418316    -0.09200
C1170       C  0.75345087  0.40667132  0.44148479    -0.02200
H1171       H  0.77353481  0.42527084  0.52250238     0.05200
C1172       C  0.74080193  0.37743363  0.51821052     0.20700
H1173       H  0.74656548  0.40191561  0.41910592     0.10400
C1174       C  0.71169375  0.38134258  0.52244501    -0.15500
C1175       C  0.69654339  0.36523854  0.54334029     0.03400
C1176       C  0.71067924  0.34463069  0.56210286    -0.10900
C1177       C  0.74047694  0.34118102  0.55732889    -0.00900
C1178       C  0.75533354  0.35726863  0.53579509    -0.06000
H1179       H  0.70042237  0.39683019  0.50865549     0.06400
H1180       H  0.75254713  0.32501311  0.56909895     0.09800
Br1181     Br  0.72822656  0.35174518  0.45432467    -0.05700
Br1182     Br  0.79132913  0.47587427  0.48712048    -0.02700
Br1183     Br  0.65658283  0.37409690  0.54396163     0.00200
Br1184     Br  0.79510571  0.34988466  0.52987417    -0.04200
C1185       C  0.75797462  0.43840172  0.31605743    -0.11600
C1186       C  0.73394272  0.43844961  0.29707466     0.03900
C1187       C  0.73124197  0.41752922  0.27536462    -0.12200
C1188       C  0.75171509  0.39599785  0.27191875     0.18700
C1189       C  0.77649080  0.39661192  0.28955634    -0.09200
C1190       C  0.77961583  0.41793836  0.31132509    -0.02200
H1191       H  0.71219343  0.41734524  0.26190467     0.05200
C1192       C  0.74375624  0.37140210  0.25293688     0.20700
H1193       H  0.79835866  0.41773190  0.32538018     0.10400
C1194       C  0.74288602  0.37495932  0.22206148    -0.15500
C1195       C  0.72508730  0.35757530  0.20446534     0.03400
C1196       C  0.70618376  0.33730442  0.21816860    -0.10900
C1197       C  0.71234783  0.33031507  0.24826855    -0.00900
C1198       C  0.72985828  0.34760170  0.26567491    -0.06000
H1199       H  0.75423890  0.39285078  0.21189027     0.06400
H1200       H  0.70260185  0.31197879  0.25921345     0.09800
Br1201     Br  0.80576157  0.36821948  0.28526095    -0.05700
Br1202     Br  0.70354160  0.46615734  0.29913413    -0.02700
Br1203     Br  0.72534431  0.36605389  0.16289105     0.00200
Br1204     Br  0.73104103  0.33992415  0.30757186    -0.04200
C1205       C  0.75163497  0.55998434  0.32060100    -0.11600
C1206       C  0.75254260  0.55315359  0.29025905     0.03900
C1207       C  0.74244651  0.57299355  0.26918589    -0.12200
C1208       C  0.73156081  0.59966869  0.27809264     0.18700
C1209       C  0.73243486  0.60713461  0.30832694    -0.09200
C1210       C  0.74227670  0.58723838  0.32932219    -0.02200
H1211       H  0.74154566  0.56695857  0.24605324     0.05200
C1212       C  0.71508039  0.61742200  0.25689245     0.20700
H1213       H  0.74139666  0.59255410  0.35265909     0.10400
C1214       C  0.68560113  0.61845025  0.26040852    -0.15500
C1215       C  0.66908226  0.63824634  0.24463828     0.03400
C1216       C  0.68236582  0.65896151  0.22525943    -0.10900
C1217       C  0.71124988  0.65330561  0.21777513    -0.00900
C1218       C  0.72777301  0.63370512  0.23416182    -0.06000
H1219       H  0.67548842  0.60451352  0.27674614     0.06400
H1220       H  0.72181258  0.66479688  0.20001203     0.09800
Br1221     Br  0.71877332  0.64361110  0.32215414    -0.05700
Br1222     Br  0.76475412  0.51605080  0.27694292    -0.02700
Br1223     Br  0.62934745  0.63653631  0.25459356     0.00200
Br1224     Br  0.76782274  0.63130204  0.22609844    -0.04200
C1225       C  0.56749543  0.57183761  0.66061539    -0.11600
C1226       C  0.59344075  0.57108488  0.67649657     0.03900
C1227       C  0.61558815  0.59010657  0.66869269    -0.12200
C1228       C  0.61206969  0.61022149  0.64557354     0.18700
C1229       C  0.58546499  0.61237361  0.63127700    -0.09200
C1230       C  0.56350658  0.59334485  0.63889555    -0.02200
H1231       H  0.63608620  0.58821575  0.67962807     0.05200
C1232       C  0.63711888  0.62557349  0.63323692     0.20700
H1233       H  0.54369507  0.59427686  0.62652681     0.10400
C1234       C  0.65517322  0.61066771  0.61423477    -0.15500
C1235       C  0.67562843  0.62486902  0.59667374     0.03400
C1236       C  0.67847004  0.65577270  0.59805471    -0.10900
C1237       C  0.66101834  0.66980208  0.61938158    -0.00900
C1238       C  0.64090178  0.65519294  0.63668329    -0.06000
H1239       H  0.65200962  0.58764493  0.61174117     0.06400
H1240       H  0.66242410  0.69293892  0.62200233     0.09800
Br1241     Br  0.57909813  0.63877170  0.59889035    -0.05700
Br1242     Br  0.60108438  0.54255525  0.70643553    -0.02700
Br1243     Br  0.69400688  0.59832445  0.57033043     0.00200
Br1244     Br  0.61813981  0.67673810  0.66393751    -0.04200
C1245       C  0.33538735  0.65528634  0.61128518    -0.11600
C1246       C  0.35457436  0.63774748  0.59441315     0.03900
C1247       C  0.37263645  0.61811449  0.60849319    -0.12200
C1248       C  0.37272073  0.61471803  0.63918397     0.18700
C1249       C  0.35347227  0.63055468  0.65623280    -0.09200
C1250       C  0.33497219  0.65026691  0.64245110    -0.02200
H1251       H  0.38752647  0.60579393  0.59531616     0.05200
C1252       C  0.39440335  0.59540956  0.65234151     0.20700
H1253       H  0.31993066  0.66097103  0.65663228     0.10400
C1254       C  0.42086539  0.60713489  0.66055472    -0.15500
C1255       C  0.44434391  0.58923198  0.66593739     0.03400
C1256       C  0.44143313  0.55921260  0.66305794    -0.10900
C1257       C  0.41459349  0.54739028  0.65657695    -0.00900
C1258       C  0.39110182  0.56526918  0.65129964    -0.06000
H1259       H  0.42369277  0.63031717  0.66097630     0.06400
H1260       H  0.41221364  0.52426853  0.65430317     0.09800
Br1261     Br  0.35150107  0.62547524  0.69839720    -0.05700
Br1262     Br  0.36034970  0.64027109  0.55217631    -0.02700
Br1263     Br  0.48055946  0.60665506  0.67444222     0.00200
Br1264     Br  0.35535576  0.54786368  0.64084750    -0.04200
C1265       C  0.34168272  0.34140168  0.61531458    -0.11600
C1266       C  0.36700402  0.32991076  0.62887810     0.03900
C1267       C  0.38760102  0.34826436  0.64098077    -0.12200
C1268       C  0.38416707  0.37809266  0.64029525     0.18700
C1269       C  0.35935589  0.38985628  0.62806307    -0.09200
C1270       C  0.33870750  0.37186559  0.61581353    -0.02200
H1271       H  0.40697291  0.33921827  0.65021148     0.05200
C1272       C  0.40867882  0.39673816  0.64721125     0.20700
H1273       H  0.32183981  0.38282127  0.60451686     0.10400
C1274       C  0.42937806  0.40055085  0.62526836    -0.15500
C1275       C  0.45147491  0.42034812  0.62881918     0.03400
C1276       C  0.45311079  0.43698451  0.65498668    -0.10900
C1277       C  0.43304313  0.43198731  0.67767011    -0.00900
C1278       C  0.41081544  0.41207347  0.67386318    -0.06000
H1279       H  0.42785800  0.38852345  0.60481764     0.06400
H1280       H  0.43393138  0.44438879  0.69789033     0.09800
Br1281     Br  0.35418134  0.43080717  0.62435514    -0.05700
Br1282     Br  0.37548708  0.28948554  0.63320809    -0.02700
Br1283     Br  0.47852455  0.42296232  0.59683213     0.00200
Br1284     Br  0.38336020  0.40701205  0.70497064    -0.04200
C1285       C  0.57578136  0.44511687  0.65630323    -0.11600
C1286       C  0.59629039  0.43957496  0.67876661     0.03900
C1287       C  0.61797653  0.41918370  0.67400849    -0.12200
C1288       C  0.61918968  0.40362934  0.64749577     0.18700
C1289       C  0.59794996  0.40814310  0.62592808    -0.09200
C1290       C  0.57687051  0.42880764  0.63025084    -0.02200
H1291       H  0.63424244  0.41587709  0.69075294     0.05200
C1292       C  0.64374652  0.38470342  0.64071860     0.20700
H1293       H  0.56105559  0.43198870  0.61300972     0.10400
C1294       C  0.64234576  0.35505470  0.64659724    -0.15500
C1295       C  0.66088598  0.33576977  0.63235360     0.03400
C1296       C  0.67962640  0.34600418  0.60951515    -0.10900
C1297       C  0.68451035  0.37627884  0.60912816    -0.00900
C1298       C  0.66654566  0.39536046  0.62384409    -0.06000
H1299       H  0.62563511  0.34669440  0.66087815     0.06400
H1300       H  0.70135510  0.38588154  0.59604969     0.09800
Br1301     Br  0.59678703  0.38671295  0.58984709    -0.05700
Br1302     Br  0.59688655  0.45979898  0.71568836    -0.02700
Br1303     Br  0.65584386  0.29582253  0.64258283     0.00200
Br1304     Br  0.67229976  0.43598736  0.61794977    -0.04200
loop_ 
_geom_bond_atom_site_label_1 
_geom_bond_atom_site_label_2 
_geom_bond_distance 
_geom_bond_site_symmetry_2 
_ccdc_geom_bond_type 
O1           Cu9   2.023       .  S
O1           C11   1.278       .  A
O2           Cu9   2.023       .  S
O2           C12   1.278       .  A
O3           Cu9   2.034       .  S
O3           C13   1.282       .  A
O4           Cu9   2.037       .  S
O4           C14   1.281       .  A
O5          Cu10   1.981       .  S
O5           C14   1.275       .  A
O6          Cu10   1.973       .  S
O6           C13   1.272       .  A
O7          Cu10   2.002       .  S
O7           C12   1.276       .  A
O8          Cu10   2.010       .  S
O8           C11   1.280       .  A
Cu9         Cu10   2.370       .  S
C11        C1285   1.490       .  S
C12        C1256   1.469       .  S
C13        C1276   1.480       .  S
C14        C1225   1.479       .  S
O15         Cu23   1.990       .  S
O15          C25   1.275       .  A
O16         Cu23   1.993       .  S
O16          C26   1.275       .  A
O17         Cu23   1.984       .  S
O17          C27   1.274       .  A
O18         Cu23   1.990       .  S
O18          C28   1.275       .  A
O19         Cu24   2.034       .  S
O19          C28   1.281       .  A
O20         Cu24   2.034       .  S
O20          C27   1.281       .  A
O21         Cu24   2.020       .  S
O21          C26   1.278       .  A
O22         Cu24   2.028       .  S
O22          C25   1.279       .  A
Cu23        Cu24   2.373       .  S
C25        C1165   1.470       .  S
C26        C1205   1.465       .  S
C27        C1185   1.482       .  S
C28        C1145   1.480       .  S
O29         Cu37   2.003       .  S
O29          C39   1.277       .  A
O30         Cu37   1.995       .  S
O30          C40   1.277       .  A
O31         Cu37   2.001       .  S
O31          C41   1.276       .  A
O32         Cu37   2.002       .  S
O32          C42   1.276       .  A
O33         Cu38   2.038       .  S
O33          C42   1.280       .  A
O34         Cu38   2.042       .  S
O34          C41   1.283       .  A
O35         Cu38   2.020       .  S
O35          C40   1.278       .  A
O36         Cu38   2.010       .  S
O36          C39   1.278       .  A
Cu37        Cu38   2.371       .  S
C39        C1116   1.481       .  S
C40        C1085   1.471       .  S
C41        C1136   1.488       .  S
C42        C1076   1.479       .  S
O43         Cu51   2.014       .  S
O43          C53   1.277       .  A
O44         Cu51   2.015       .  S
O44          C54   1.279       .  A
O45         Cu51   2.015       .  S
O45          C55   1.278       .  A
O46         Cu51   2.029       .  S
O46          C56   1.280       .  A
O47         Cu52   1.981       .  S
O47          C56   1.275       .  A
O48         Cu52   1.985       .  S
O48          C55   1.276       .  A
O49         Cu52   1.994       .  S
O49          C54   1.276       .  A
O50         Cu52   2.001       .  S
O50          C53   1.277       .  A
Cu51        Cu52   2.372       .  S
C53        C1036   1.468       .  S
C54        C1016   1.481       .  S
C55         C985   1.473       .  S
C56        C1056   1.479       .  S
O57         Cu65   2.006       .  S
O57          C67   1.279       .  A
O58         Cu65   1.998       .  S
O58          C68   1.275       .  A
O59         Cu65   2.007       .  S
O59          C69   1.277       .  A
O60         Cu65   2.011       .  S
O60          C70   1.278       .  A
O61         Cu66   2.017       .  S
O61          C70   1.278       .  A
O62         Cu66   2.023       .  S
O62          C69   1.278       .  A
O63         Cu66   2.036       .  S
O63          C68   1.280       .  A
O64         Cu66   2.025       .  S
O64          C67   1.279       .  A
Cu65        Cu66   2.373       .  S
C67         C925   1.493       .  S
C68         C965   1.474       .  S
C69         C905   1.472       .  S
C70         C945   1.474       .  S
O71         Cu79   1.990       .  S
O71          C81   1.276       .  A
O72         Cu79   1.987       .  S
O72          C82   1.275       .  A
O73         Cu79   1.996       .  S
O73          C83   1.277       .  A
O74         Cu79   1.997       .  S
O74          C84   1.276       .  A
O75         Cu80   2.024       .  S
O75          C84   1.279       .  A
O76         Cu80   2.023       .  S
O76          C83   1.279       .  A
O77         Cu80   2.029       .  S
O77          C82   1.280       .  A
O78         Cu80   2.038       .  S
O78          C81   1.281       .  A
Cu79        Cu80   2.371       .  S
C81         C836   1.488       .  S
C82         C865   1.473       .  S
C83         C896   1.479       .  S
C84         C845   1.475       .  S
C85         C805   1.581       .  S
C85        C1065   1.586       .  S
C85        C1156   1.576       .  S
C85        C1236   1.579       .  S
C86         C745   1.582       .  S
C86         C765   1.580       .  S
C86         C785   1.577       .  S
C86         C816   1.573       .  S
C87         C736   1.576       .  S
C87         C936   1.583       .  S
C87        C1176   1.577       .  S
C87        C1296   1.584       .  S
C88         C665   1.571       .  S
C88         C685   1.574       .  S
C88         C705   1.582       .  S
C88         C725   1.570       .  S
C89         C645   1.571       .  S
C89         C996   1.566       .  S
C89        C1096   1.584       .  S
C89        C1245   1.580       .  S
C90         C585   1.586       .  S
C90         C605   1.577       .  S
C90         C636   1.593       .  S
C90         C656   1.564       .  S
C91         C576   1.577       .  S
C91         C856   1.578       .  S
C91        C1105   1.572       .  S
C91        C1216   1.582       .  S
C92         C516   1.583       .  S
C92         C525   1.576       .  S
C92         C556   1.592       .  S
C92         C565   1.571       .  S
C93         C485   1.569       .  S
C93         C916   1.573       .  S
C93        C1005   1.579       .  S
C93        C1265   1.568       .  S
C94         C436   1.569       .  S
C94         C445   1.576       .  S
C94         C476   1.580       .  S
C94         C496   1.567       .  S
C95         C405   1.565       .  S
C95         C876   1.581       .  S
C95        C1025   1.576       .  S
C95        C1125   1.588       .  S
C96         C356   1.584       .  S
C96         C365   1.586       .  S
C96         C396   1.580       .  S
C96         C416   1.573       .  S
C97         C336   1.577       .  S
C97         C825   1.573       .  S
C97         C956   1.579       .  S
C97        C1196   1.579       .  S
C98         C265   1.577       .  S
C98         C285   1.585       .  S
C98         C316   1.595       .  S
C98         C325   1.575       .  S
C99         C245   1.571       .  S
C99         C885   1.573       .  S
C99         C976   1.579       .  S
C99        C1045   1.574       .  S
C100        C196   1.582       .  S
C100        C216   1.581       .  S
C100        C225   1.580       .  S
C100        C256   1.573       .  S
O101       Cu109   1.998   1_565  S
O101        C111   1.276       .  A
O102       Cu109   1.994       .  S
O102        C112   1.275       .  A
O103       Cu109   1.966       .  S
O103        C113   1.275       .  A
O104       Cu109   1.978   1_565  S
O104        C114   1.275       .  A
O105       Cu110   2.041   1_565  S
O105        C114   1.281       .  A
O106       Cu110   2.037       .  S
O106        C113   1.280       .  A
O107       Cu110   2.024       .  S
O107        C112   1.278       .  A
O108       Cu110   2.025   1_565  S
O108        C111   1.278       .  A
Cu109      Cu110   2.373       .  S
C111        C616   1.471       .  S
C112        C205   1.467       .  S
C113        C456   1.480       .  S
C114        C376   1.482       .  S
O115       Cu123   1.981       .  S
O115        C125   1.274       .  A
O116       Cu123   1.983   1_455  S
O116        C126   1.276       .  A
O117       Cu123   2.001       .  S
O117        C127   1.277       .  A
O118       Cu123   1.998   1_455  S
O118        C128   1.276       .  A
O119       Cu124   2.020   1_455  S
O119        C128   1.278       .  A
O120       Cu124   2.019       .  S
O120        C127   1.278       .  A
O121       Cu124   2.031   1_455  S
O121        C126   1.280       .  A
O122       Cu124   2.030       .  S
O122        C125   1.280       .  A
Cu123      Cu124   2.374       .  S
C125        C696   1.468       .  S
C126        C185   1.486       .  S
C127        C296   1.475       .  S
C128        C465   1.469       .  S
O129       Cu137   2.000   1_455  S
O129        C139   1.276       .  A
O130       Cu137   1.999   1_545  S
O130        C140   1.276       .  A
O131       Cu137   2.004   1_445  S
O131        C141   1.277       .  A
O132       Cu137   1.994       .  S
O132        C142   1.277       .  A
O133       Cu138   2.035       .  S
O133        C142   1.280       .  A
O134       Cu138   2.040   1_445  S
O134        C141   1.281       .  A
O135       Cu138   2.028   1_545  S
O135        C140   1.280       .  A
O136       Cu138   2.035   1_455  S
O136        C139   1.281       .  A
Cu137      Cu138   2.369       .  S
C139        C385   1.487       .  S
C140        C305   1.484       .  S
C141        C236   1.486       .  S
C142        C545   1.482       .  S
O143       Cu151   2.000       .  S
O143        C153   1.277       .  A
O144       Cu151   1.994   1_545  S
O144        C154   1.276       .  A
O145       Cu151   2.000   1_545  S
O145        C155   1.276       .  A
O146       Cu151   1.999       .  S
O146        C156   1.277       .  A
O147       Cu152   2.024       .  S
O147        C156   1.278       .  A
O148       Cu152   2.027   1_545  S
O148        C155   1.279       .  A
O149       Cu152   2.025   1_545  S
O149        C154   1.279       .  A
O150       Cu152   2.027       .  S
O150        C153   1.279       .  A
Cu151      Cu152   2.373       .  S
C153        C536   1.474       .  S
C154        C676   1.478       .  S
C155        C276   1.474       .  S
C156        C776   1.470       .  S
O157       Cu165   2.014       .  S
O157        C167   1.277       .  A
O158       Cu165   2.022   1_645  S
O158        C168   1.278       .  A
O159       Cu165   2.021   1_545  S
O159        C169   1.279       .  A
O160       Cu165   2.022   1_655  S
O160        C170   1.280       .  A
O161       Cu166   1.999   1_655  S
O161        C170   1.276       .  A
O162       Cu166   1.982   1_545  S
O162        C169   1.275       .  A
O163       Cu166   2.020   1_645  S
O163        C168   1.280       .  A
O164       Cu166   2.022       .  S
O164        C167   1.280       .  A
Cu165      Cu166   2.371       .  S
C167        C625   1.484       .  S
C168        C716   1.487       .  S
C169        C425   1.472       .  S
C170        C796   1.483       .  S
O171       Cu179   2.027       .  S
O171        C181   1.279       .  A
O172       Cu179   2.025   1_455  S
O172        C182   1.279       .  A
O173       Cu179   2.026       .  S
O173        C183   1.279       .  A
O174       Cu179   2.036   1_455  S
O174        C184   1.280       .  A
O175       Cu180   2.007   1_455  S
O175        C184   1.279       .  A
O176       Cu180   1.999       .  S
O176        C183   1.278       .  A
O177       Cu180   2.000   1_455  S
O177        C182   1.276       .  A
O178       Cu180   1.999       .  S
O178        C181   1.276       .  A
Cu179      Cu180   2.369       .  S
C181        C756   1.475       .  S
C182        C345   1.473       .  S
C183        C505   1.488       .  S
C184        C596   1.498       .  S
C185        C186   1.418       .  A
C185        C190   1.406       .  A
C186        C187   1.407       .  A
C186       Br202   1.918       .  S
C187        C188   1.403   1_556  A
C187        H191   1.083       .  S
C188        C192   1.476       .  S
C188        C189   1.404   1_554  A
C189        C190   1.390       .  A
C189       Br201   1.918   1_556  S
C190        H193   1.083       .  S
C192        C194   1.396       .  A
C192        C198   1.399       .  A
C194        C195   1.403       .  A
C194        H199   1.084       .  S
C195        C196   1.432       .  A
C195       Br203   1.918       .  S
C196        C197   1.421       .  A
C197        C198   1.395       .  A
C197        H200   1.078       .  S
C198       Br204   1.919   1_554  S
C205        C206   1.408       .  A
C205        C210   1.401   1_556  A
C206        C207   1.400       .  A
C206       Br222   1.917       .  S
C207        C208   1.403   1_556  A
C207        H211   1.084       .  S
C208        C212   1.475       .  S
C208        C209   1.407       .  A
C209        C210   1.397       .  A
C209       Br221   1.918       .  S
C210        H213   1.084       .  S
C212        C214   1.393       .  A
C212        C218   1.397       .  A
C214        C215   1.396       .  A
C214        H219   1.084       .  S
C215        C216   1.434       .  A
C215       Br223   1.921       .  S
C216        C217   1.426       .  A
C217        C218   1.400       .  A
C217        H220   1.077       .  S
C218       Br224   1.918       .  S
C225        C226   1.435       .  A
C225        C230   1.425       .  A
C226        C227   1.407       .  A
C226       Br242   1.925       .  S
C227        C228   1.401       .  A
C227        H231   1.082       .  S
C228        C232   1.493       .  S
C228        C229   1.402       .  A
C229        C230   1.399       .  A
C229       Br241   1.922       .  S
C230        H233   1.065       .  S
C232        C234   1.408       .  A
C232        C238   1.410       .  A
C234        C235   1.407       .  A
C234        H239   1.083       .  S
C235        C236   1.412       .  A
C235       Br243   1.919       .  S
C236        C237   1.404       .  A
C237        C238   1.400       .  A
C237        H240   1.084       .  S
C238       Br244   1.920       .  S
C245        C246   1.431       .  A
C245        C250   1.422       .  A
C246        C247   1.405       .  A
C246       Br262   1.920       .  S
C247        C248   1.399       .  A
C247        H251   1.084       .  S
C248        C252   1.485       .  S
C248        C249   1.400       .  A
C249        C250   1.395       .  A
C249       Br261   1.922       .  S
C250        H253   1.077       .  S
C252        C254   1.399       .  A
C252        C258   1.399       .  A
C254        C255   1.404       .  A
C254        H259   1.084       .  S
C255        C256   1.436       .  A
C255       Br263   1.926       .  S
C256        C257   1.423       .  A
C257        C258   1.396       .  A
C257        H260   1.083       .  S
C258       Br264   1.920       .  S
C265        C266   1.437       .  A
C265        C270   1.424       .  A
C266        C267   1.409       .  A
C266       Br282   1.922       .  S
C267        C268   1.399       .  A
C267        H271   1.084       .  S
C268        C272   1.482   1_554  S
C268        C269   1.398       .  A
C269        C270   1.390       .  A
C269       Br281   1.921   1_554  S
C270        H273   1.083       .  S
C272        C274   1.404       .  A
C272        C278   1.409       .  A
C274        C275   1.399       .  A
C274        H279   1.084       .  S
C275        C276   1.409       .  A
C275       Br283   1.920       .  S
C276        C277   1.403       .  A
C277        C278   1.403       .  A
C277        H280   1.083       .  S
C278       Br284   1.918   1_556  S
C285        C286   1.434       .  A
C285        C290   1.423       .  A
C286        C287   1.406       .  A
C286       Br302   1.926       .  S
C287        C288   1.400       .  A
C287        H291   1.083       .  S
C288        C292   1.479       .  S
C288        C289   1.400       .  A
C289        C290   1.391       .  A
C289       Br301   1.923   1_554  S
C290        H293   1.077       .  S
C292        C294   1.402       .  A
C292        C298   1.409   1_554  A
C294        C295   1.397   1_554  A
C294        H299   1.084       .  S
C295        C296   1.410       .  A
C295       Br303   1.921       .  S
C296        C297   1.404       .  A
C297        C298   1.402       .  A
C297        H300   1.083       .  S
C298       Br304   1.918       .  S
C305        C306   1.416       .  A
C305        C310   1.407       .  A
C306        C307   1.397       .  A
C306       Br322   1.922       .  S
C307        C308   1.400       .  A
C307        H311   1.084       .  S
C308        C312   1.482       .  S
C308        C309   1.409       .  A
C309        C310   1.404       .  A
C309       Br321   1.917       .  S
C310        H313   1.083       .  S
C312        C314   1.397       .  A
C312        C318   1.396       .  A
C314        C315   1.406       .  A
C314        H319   1.082       .  S
C315        C316   1.442       .  A
C315       Br323   1.931       .  S
C316        C317   1.426       .  A
C317        C318   1.394       .  A
C317        H320   1.061       .  S
C318       Br324   1.924       .  S
C325        C326   1.435       .  A
C325        C330   1.419       .  A
C326        C327   1.402       .  A
C326       Br342   1.927       .  S
C327        C328   1.405       .  A
C327        H331   1.083       .  S
C328        C332   1.507       .  S
C328        C329   1.409       .  A
C329        C330   1.402       .  A
C329       Br341   1.923       .  S
C330        H333   1.072       .  S
C332        C334   1.403       .  A
C332        C338   1.410       .  A
C334        C335   1.404       .  A
C334        H339   1.083       .  S
C335        C336   1.440       .  A
C335       Br343   1.930       .  S
C336        C337   1.422       .  A
C337        C338   1.401       .  A
C337        H340   1.080       .  S
C338       Br344   1.923       .  S
C345        C346   1.408       .  A
C345        C350   1.403   1_556  A
C346        C347   1.402       .  A
C346       Br362   1.918       .  S
C347        C348   1.405   1_556  A
C347        H351   1.083       .  S
C348        C352   1.482       .  S
C348        C349   1.410       .  A
C349        C350   1.398       .  A
C349       Br361   1.921       .  S
C350        H353   1.084       .  S
C352        C354   1.394       .  A
C352        C358   1.403       .  A
C354        C355   1.393       .  A
C354        H359   1.084       .  S
C355        C356   1.436       .  A
C355       Br363   1.925       .  S
C356        C357   1.422       .  A
C357        C358   1.404       .  A
C357        H360   1.078       .  S
C358       Br364   1.918       .  S
C365        C366   1.434       .  A
C365        C370   1.426       .  A
C366        C367   1.411       .  A
C366       Br382   1.922       .  S
C367        C368   1.399       .  A
C367        H371   1.083       .  S
C368        C372   1.480       .  S
C368        C369   1.396       .  A
C369        C370   1.392       .  A
C369       Br381   1.921   1_554  S
C370        H373   1.077       .  S
C372        C374   1.405       .  A
C372        C378   1.407       .  A
C374        C375   1.408   1_554  A
C374        H379   1.083       .  S
C375        C376   1.413       .  A
C375       Br383   1.917       .  S
C376        C377   1.403       .  A
C377        C378   1.391   1_556  A
C377        H380   1.084       .  S
C378       Br384   1.917       .  S
C385        C386   1.415       .  A
C385        C390   1.407       .  A
C386        C387   1.397       .  A
C386       Br402   1.922       .  S
C387        C388   1.400       .  A
C387        H391   1.084       .  S
C388        C392   1.483       .  S
C388        C389   1.409       .  A
C389        C390   1.405       .  A
C389       Br401   1.917       .  S
C390        H393   1.083       .  S
C392        C394   1.393       .  A
C392        C398   1.398       .  A
C394        C395   1.403       .  A
C394        H399   1.085       .  S
C395        C396   1.440       .  A
C395       Br403   1.911       .  S
C396        C397   1.429       .  A
C397        C398   1.399       .  A
C397        H400   1.083       .  S
C398       Br404   1.917       .  S
C405        C406   1.435       .  A
C405        C410   1.417       .  A
C406        C407   1.404       .  A
C406       Br422   1.924       .  S
C407        C408   1.397       .  A
C407        H411   1.084       .  S
C408        C412   1.485       .  S
C408        C409   1.402       .  A
C409        C410   1.396       .  A
C409       Br421   1.921       .  S
C410        H413   1.078       .  S
C412        C414   1.396       .  A
C412        C418   1.401       .  A
C414        C415   1.400       .  A
C414        H419   1.084       .  S
C415        C416   1.440       .  A
C415       Br423   1.930       .  S
C416        C417   1.423       .  A
C417        C418   1.400       .  A
C417        H420   1.083       .  S
C418       Br424   1.918       .  S
C425        C426   1.412       .  A
C425        C430   1.402       .  A
C426        C427   1.402       .  A
C426       Br442   1.919       .  S
C427        C428   1.402       .  A
C427        H431   1.083       .  S
C428        C432   1.474       .  S
C428        C429   1.408       .  A
C429        C430   1.392       .  A
C429       Br441   1.921       .  S
C430        H433   1.084       .  S
C432        C434   1.393       .  A
C432        C438   1.400       .  A
C434        C435   1.395       .  A
C434        H439   1.084       .  S
C435        C436   1.432       .  A
C435       Br443   1.924       .  S
C436        C437   1.420       .  A
C437        C438   1.397       .  A
C437        H440   1.075       .  S
C438       Br444   1.920       .  S
C445        C446   1.435       .  A
C445        C450   1.421       .  A
C446        C447   1.400       .  A
C446       Br462   1.919       .  S
C447        C448   1.392       .  A
C447        H451   1.084       .  S
C448        C452   1.472       .  S
C448        C449   1.399       .  A
C449        C450   1.394       .  A
C449       Br461   1.920       .  S
C450        H453   1.079       .  S
C452        C454   1.404       .  A
C452        C458   1.402       .  A
C454        C455   1.408       .  A
C454        H459   1.083       .  S
C455        C456   1.415       .  A
C455       Br463   1.917       .  S
C456        C457   1.403       .  A
C457        C458   1.384       .  A
C457        H460   1.083       .  S
C458       Br464   1.917       .  S
C465        C466   1.407       .  A
C465        C470   1.402       .  A
C466        C467   1.400       .  A
C466       Br482   1.917       .  S
C467        C468   1.403       .  A
C467        H471   1.083       .  S
C468        C472   1.479       .  S
C468        C469   1.410       .  A
C469        C470   1.398       .  A
C469       Br481   1.920       .  S
C470        H473   1.084       .  S
C472        C474   1.390       .  A
C472        C478   1.401       .  A
C474        C475   1.392       .  A
C474        H479   1.085       .  S
C475        C476   1.437       .  A
C475       Br483   1.919       .  S
C476        C477   1.422       .  A
C477        C478   1.403       .  A
C477        H480   1.076       .  S
C478       Br484   1.917       .  S
C485        C486   1.435       .  A
C485        C490   1.421       .  A
C486        C487   1.397       .  A
C486       Br502   1.930       .  S
C487        C488   1.402       .  A
C487        H491   1.083       .  S
C488        C492   1.496       .  S
C488        C489   1.407       .  A
C489        C490   1.397       .  A
C489       Br501   1.924       .  S
C490        H493   1.081       .  S
C492        C494   1.405       .  A
C492        C498   1.407       .  A
C494        C495   1.397       .  A
C494        H499   1.082       .  S
C495        C496   1.426       .  A
C495       Br503   1.925       .  S
C496        C497   1.421       .  A
C497        C498   1.396       .  A
C497        H500   1.079       .  S
C498       Br504   1.925       .  S
C505        C506   1.417       .  A
C505        C510   1.405       .  A
C506        C507   1.407       .  A
C506       Br522   1.919       .  S
C507        C508   1.402   1_556  A
C507        H511   1.083       .  S
C508        C512   1.478       .  S
C508        C509   1.406       .  A
C509        C510   1.393   1_554  A
C509       Br521   1.920       .  S
C510        H513   1.083       .  S
C512        C514   1.401       .  A
C512        C518   1.397       .  A
C514        C515   1.408       .  A
C514        H519   1.083       .  S
C515        C516   1.431       .  A
C515       Br523   1.922       .  S
C516        C517   1.423       .  A
C517        C518   1.390       .  A
C517        H520   1.079       .  S
C518       Br524   1.920   1_554  S
C525        C526   1.437       .  A
C525        C530   1.422       .  A
C526        C527   1.410       .  A
C526       Br542   1.924       .  S
C527        C528   1.401       .  A
C527        H531   1.084       .  S
C528        C532   1.485   1_554  S
C528        C529   1.399       .  A
C529        C530   1.388       .  A
C529       Br541   1.922   1_554  S
C530        H533   1.083       .  S
C532        C534   1.404       .  A
C532        C538   1.411       .  A
C534        C535   1.397       .  A
C534        H539   1.084   1_556  S
C535        C536   1.408       .  A
C535       Br543   1.920       .  S
C536        C537   1.404       .  A
C537        C538   1.404       .  A
C537        H540   1.083       .  S
C538       Br544   1.918       .  S
C545        C546   1.412       .  A
C545        C550   1.405       .  A
C546        C547   1.406       .  A
C546       Br562   1.918       .  S
C547        C548   1.406       .  A
C547        H551   1.083       .  S
C548        C552   1.481       .  S
C548        C549   1.406       .  A
C549        C550   1.395       .  A
C549       Br561   1.921       .  S
C550        H553   1.083       .  S
C552        C554   1.395       .  A
C552        C558   1.397       .  A
C554        C555   1.404       .  A
C554        H559   1.084       .  S
C555        C556   1.439       .  A
C555       Br563   1.922       .  S
C556        C557   1.424       .  A
C557        C558   1.395       .  A
C557        H560   1.072       .  S
C558       Br564   1.922       .  S
C565        C566   1.433       .  A
C565        C570   1.418       .  A
C566        C567   1.402       .  A
C566       Br582   1.923       .  S
C567        C568   1.402       .  A
C567        H571   1.083       .  S
C568        C572   1.502       .  S
C568        C569   1.410       .  A
C569        C570   1.399       .  A
C569       Br581   1.924       .  S
C570        H573   1.074       .  S
C572        C574   1.403       .  A
C572        C578   1.411       .  A
C574        C575   1.402       .  A
C574        H579   1.081       .  S
C575        C576   1.429       .  A
C575       Br583   1.924       .  S
C576        C577   1.419       .  A
C577        C578   1.398       .  A
C577        H580   1.080       .  S
C578       Br584   1.924       .  S
C585        C586   1.434       .  A
C585        C590   1.422       .  A
C586        C587   1.407       .  A
C586       Br602   1.921       .  S
C587        C588   1.399       .  A
C587        H591   1.083       .  S
C588        C592   1.486       .  S
C588        C589   1.401       .  A
C589        C590   1.396       .  A
C589       Br601   1.920       .  S
C590        H593   1.078       .  S
C592        C594   1.402       .  A
C592        C598   1.407       .  A
C594        C595   1.408       .  A
C594        H599   1.083       .  S
C595        C596   1.420       .  A
C595       Br603   1.919       .  S
C596        C597   1.409       .  A
C597        C598   1.398       .  A
C597        H600   1.083       .  S
C598       Br604   1.921       .  S
C605        C606   1.441       .  A
C605        C610   1.421       .  A
C606        C607   1.407       .  A
C606       Br622   1.927       .  S
C607        C608   1.397       .  A
C607        H611   1.084       .  S
C608        C612   1.481       .  S
C608        C609   1.400       .  A
C609        C610   1.388       .  A
C609       Br621   1.922       .  S
C610        H613   1.083       .  S
C612        C614   1.402       .  A
C612        C618   1.411       .  A
C614        C615   1.396       .  A
C614        H619   1.084       .  S
C615        C616   1.408       .  A
C615       Br623   1.917       .  S
C616        C617   1.402       .  A
C617        C618   1.402       .  A
C617        H620   1.083       .  S
C618       Br624   1.918       .  S
C625        C626   1.413       .  A
C625        C630   1.406       .  A
C626        C627   1.403       .  A
C626       Br642   1.919       .  S
C627        C628   1.403       .  A
C627        H631   1.083       .  S
C628        C632   1.483       .  S
C628        C629   1.408       .  A
C629        C630   1.401       .  A
C629       Br641   1.920       .  S
C630        H633   1.084       .  S
C632        C634   1.397       .  A
C632        C638   1.396       .  A
C634        C635   1.407       .  A
C634        H639   1.084       .  S
C635        C636   1.439       .  A
C635       Br643   1.922       .  S
C636        C637   1.425       .  A
C637        C638   1.393       .  A
C637        H640   1.072       .  S
C638       Br644   1.922       .  S
C645        C646   1.441       .  A
C645        C650   1.421       .  A
C646        C647   1.400       .  A
C646       Br662   1.931       .  S
C647        C648   1.395       .  A
C647        H651   1.084       .  S
C648        C652   1.487       .  S
C648        C649   1.403       .  A
C649        C650   1.399       .  A
C649       Br661   1.918       .  S
C650        H653   1.083       .  S
C652        C654   1.398       .  A
C652        C658   1.405       .  A
C654        C655   1.405       .  A
C654        H659   1.084       .  S
C655        C656   1.435       .  A
C655       Br663   1.924       .  S
C656        C657   1.416       .  A
C657        C658   1.395       .  A
C657        H660   1.076       .  S
C658       Br664   1.922       .  S
C665        C666   1.433       .  A
C665        C670   1.419       .  A
C666        C667   1.405       .  A
C666       Br682   1.920       .  S
C667        C668   1.399       .  A
C667        H671   1.084       .  S
C668        C672   1.482       .  S
C668        C669   1.404       .  A
C669        C670   1.395       .  A
C669       Br681   1.922       .  S
C670        H673   1.077       .  S
C672        C674   1.401       .  A
C672        C678   1.408       .  A
C674        C675   1.394       .  A
C674        H679   1.081       .  S
C675        C676   1.411       .  A
C675       Br683   1.922       .  S
C676        C677   1.407       .  A
C677        C678   1.404       .  A
C677        H680   1.083       .  S
C678       Br684   1.917       .  S
C685        C686   1.439       .  A
C685        C690   1.417       .  A
C686        C687   1.405       .  A
C686       Br702   1.927       .  S
C687        C688   1.395       .  A
C687        H691   1.084       .  S
C688        C692   1.477       .  S
C688        C689   1.399       .  A
C689        C690   1.392       .  A
C689       Br701   1.921       .  S
C690        H693   1.076       .  S
C692        C694   1.405       .  A
C692        C698   1.406       .  A
C694        C695   1.404       .  A
C694        H699   1.083       .  S
C695        C696   1.407       .  A
C695       Br703   1.917       .  S
C696        C697   1.401       .  A
C697        C698   1.393       .  A
C697        H700   1.084       .  S
C698       Br704   1.916       .  S
C705        C706   1.445       .  A
C705        C710   1.423       .  A
C706        C707   1.398       .  A
C706       Br722   1.924       .  S
C707        C708   1.388       .  A
C707        H711   1.085       .  S
C708        C712   1.485       .  S
C708        C709   1.401       .  A
C709        C710   1.406       .  A
C709       Br721   1.916       .  S
C710        H713   1.080       .  S
C712        C714   1.404       .  A
C712        C718   1.408       .  A
C714        C715   1.406       .  A
C714        H719   1.083       .  S
C715        C716   1.415       .  A
C715       Br723   1.919       .  S
C716        C717   1.404       .  A
C717        C718   1.399       .  A
C717        H720   1.084       .  S
C718       Br724   1.917       .  S
C725        C726   1.435       .  A
C725        C730   1.420       .  A
C726        C727   1.398       .  A
C726       Br742   1.922       .  S
C727        C728   1.394       .  A
C727        H731   1.084       .  S
C728        C732   1.489       .  S
C728        C729   1.406       .  A
C729        C730   1.405       .  A
C729       Br741   1.919       .  S
C730        H733   1.077       .  S
C732        C734   1.400       .  A
C732        C738   1.402       .  A
C734        C735   1.404       .  A
C734        H739   1.084       .  S
C735        C736   1.431       .  A
C735       Br743   1.922       .  S
C736        C737   1.423       .  A
C737        C738   1.399       .  A
C737        H740   1.078       .  S
C738       Br744   1.921       .  S
C745        C746   1.433       .  A
C745        C750   1.422       .  A
C746        C747   1.401       .  A
C746       Br762   1.920       .  S
C747        C748   1.397       .  A
C747        H751   1.084       .  S
C748        C752   1.483       .  S
C748        C749   1.403       .  A
C749        C750   1.399       .  A
C749       Br761   1.920       .  S
C750        H753   1.078       .  S
C752        C754   1.404       .  A
C752        C758   1.410       .  A
C754        C755   1.396       .  A
C754        H759   1.084       .  S
C755        C756   1.407       .  A
C755       Br763   1.920       .  S
C756        C757   1.406       .  A
C757        C758   1.405       .  A
C757        H760   1.084       .  S
C758       Br764   1.918       .  S
C765        C766   1.436       .  A
C765        C770   1.424       .  A
C766        C767   1.393       .  A
C766       Br782   1.924       .  S
C767        C768   1.393       .  A
C767        H771   1.085       .  S
C768        C772   1.479       .  S
C768        C769   1.400       .  A
C769        C770   1.403       .  A
C769       Br781   1.917       .  S
C770        H773   1.078       .  S
C772        C774   1.403       .  A
C772        C778   1.410       .  A
C774        C775   1.403       .  A
C774        H779   1.083       .  S
C775        C776   1.409       .  A
C775       Br783   1.917       .  S
C776        C777   1.399       .  A
C777        C778   1.396       .  A
C777        H780   1.084       .  S
C778       Br784   1.921       .  S
C785        C786   1.433       .  A
C785        C790   1.422       .  A
C786        C787   1.403       .  A
C786       Br802   1.923       .  S
C787        C788   1.395       .  A
C787        H791   1.084       .  S
C788        C792   1.477       .  S
C788        C789   1.398       .  A
C789        C790   1.395       .  A
C789       Br801   1.921       .  S
C790        H793   1.074       .  S
C792        C794   1.400       .  A
C792        C798   1.405       .  A
C794        C795   1.398       .  A
C794        H799   1.084       .  S
C795        C796   1.416       .  A
C795       Br803   1.923       .  S
C796        C797   1.407       .  A
C797        C798   1.402       .  A
C797        H800   1.083       .  S
C798       Br804   1.916       .  S
C805        C806   1.428       .  A
C805        C810   1.421       .  A
C806        C807   1.406       .  A
C806       Br822   1.923       .  S
C807        C808   1.405       .  A
C807        H811   1.082       .  S
C808        C812   1.504       .  S
C808        C809   1.409       .  A
C809        C810   1.398       .  A
C809       Br821   1.925       .  S
C810        H813   1.079       .  S
C812        C814   1.403       .  A
C812        C818   1.411       .  A
C814        C815   1.400       .  A
C814        H819   1.082       .  S
C815        C816   1.428       .  A
C815       Br823   1.925       .  S
C816        C817   1.420       .  A
C817        C818   1.403       .  A
C817        H820   1.080       .  S
C818       Br824   1.922       .  S
C825        C826   1.438       .  A
C825        C830   1.423       .  A
C826        C827   1.400       .  A
C826       Br842   1.919       .  S
C827        C828   1.392       .  A
C827        H831   1.085       .  S
C828        C832   1.480       .  S
C828        C829   1.399       .  A
C829        C830   1.401       .  A
C829       Br841   1.916       .  S
C830        H833   1.081       .  S
C832        C834   1.404       .  A
C832        C838   1.405       .  A
C834        C835   1.406       .  A
C834        H839   1.083       .  S
C835        C836   1.415       .  A
C835       Br843   1.919       .  S
C836        C837   1.407       .  A
C837        C838   1.395       .  A
C837        H840   1.084       .  S
C838       Br844   1.919       .  S
C845        C846   1.412       .  A
C845        C850   1.402       .  A
C846        C847   1.403       .  A
C846       Br862   1.920       .  S
C847        C848   1.403       .  A
C847        H851   1.083       .  S
C848        C852   1.480       .  S
C848        C849   1.409       .  A
C849        C850   1.397       .  A
C849       Br861   1.921       .  S
C850        H853   1.084       .  S
C852        C854   1.394       .  A
C852        C858   1.396       .  A
C854        C855   1.404       .  A
C854        H859   1.085       .  S
C855        C856   1.442       .  A
C855       Br863   1.923       .  S
C856        C857   1.424       .  A
C857        C858   1.395       .  A
C857        H860   1.083       .  S
C858       Br864   1.918       .  S
C865        C866   1.411       .  A
C865        C870   1.405       .  A
C866        C867   1.394       .  A
C866       Br882   1.922       .  S
C867        C868   1.400       .  A
C867        H871   1.084       .  S
C868        C872   1.477       .  S
C868        C869   1.409       .  A
C869        C870   1.403       .  A
C869       Br881   1.918       .  S
C870        H873   1.083       .  S
C872        C874   1.397       .  A
C872        C878   1.399       .  A
C874        C875   1.403       .  A
C874        H879   1.084       .  S
C875        C876   1.433       .  A
C875       Br883   1.920       .  S
C876        C877   1.422       .  A
C877        C878   1.392       .  A
C877        H880   1.078       .  S
C878       Br884   1.922       .  S
C885        C886   1.433       .  A
C885        C890   1.420       .  A
C886        C887   1.407       .  A
C886       Br902   1.919       .  S
C887        C888   1.399       .  A
C887        H891   1.084       .  S
C888        C892   1.480       .  S
C888        C889   1.401       .  A
C889        C890   1.393       .  A
C889       Br901   1.922       .  S
C890        H893   1.078       .  S
C892        C894   1.401       .  A
C892        C898   1.408       .  A
C894        C895   1.395       .  A
C894        H899   1.082       .  S
C895        C896   1.412       .  A
C895       Br903   1.923       .  S
C896        C897   1.407       .  A
C897        C898   1.404       .  A
C897        H900   1.083       .  S
C898       Br904   1.917       .  S
C905        C906   1.409       .  A
C905        C910   1.401       .  A
C906        C907   1.404       .  A
C906       Br922   1.918       .  S
C907        C908   1.405       .  A
C907        H911   1.083       .  S
C908        C912   1.480       .  S
C908        C909   1.409       .  A
C909        C910   1.398       .  A
C909       Br921   1.920       .  S
C910        H913   1.084       .  S
C912        C914   1.392       .  A
C912        C918   1.403       .  A
C914        C915   1.391       .  A
C914        H919   1.085       .  S
C915        C916   1.435       .  A
C915       Br923   1.927       .  S
C916        C917   1.421       .  A
C917        C918   1.407       .  A
C917        H920   1.079       .  S
C918       Br924   1.916       .  S
C925        C926   1.419       .  A
C925        C930   1.408       .  A
C926        C927   1.405       .  A
C926       Br942   1.920       .  S
C927        C928   1.401       .  A
C927        H931   1.083       .  S
C928        C932   1.480       .  S
C928        C929   1.405       .  A
C929        C930   1.396       .  A
C929       Br941   1.919       .  S
C930        H933   1.083       .  S
C932        C934   1.394       .  A
C932        C938   1.398       .  A
C934        C935   1.403       .  A
C934        H939   1.083       .  S
C935        C936   1.437       .  A
C935       Br943   1.924       .  S
C936        C937   1.423       .  A
C937        C938   1.398       .  A
C937        H940   1.067       .  S
C938       Br944   1.920       .  S
C945        C946   1.410       .  A
C945        C950   1.402       .  A
C946        C947   1.403       .  A
C946       Br962   1.919       .  S
C947        C948   1.403       .  A
C947        H951   1.083       .  S
C948        C952   1.480       .  S
C948        C949   1.409       .  A
C949        C950   1.399       .  A
C949       Br961   1.917       .  S
C950        H953   1.083       .  S
C952        C954   1.400       .  A
C952        C958   1.396       .  A
C954        C955   1.411       .  A
C954        H959   1.084       .  S
C955        C956   1.435       .  A
C955       Br963   1.922       .  S
C956        C957   1.421       .  A
C957        C958   1.388       .  A
C957        H960   1.078       .  S
C958       Br964   1.921       .  S
C965        C966   1.408       .  A
C965        C970   1.403       .  A
C966        C967   1.403       .  A
C966       Br982   1.918       .  S
C967        C968   1.404       .  A
C967        H971   1.083       .  S
C968        C972   1.481       .  S
C968        C969   1.408       .  A
C969        C970   1.401       .  A
C969       Br981   1.918       .  S
C970        H973   1.084       .  S
C972        C974   1.399       .  A
C972        C978   1.397       .  A
C974        C975   1.410       .  A
C974        H979   1.083       .  S
C975        C976   1.437       .  A
C975       Br983   1.924       .  S
C976        C977   1.420       .  A
C977        C978   1.390       .  A
C977        H980   1.077       .  S
C978       Br984   1.921       .  S
C985        C986   1.411       .  A
C985        C990   1.403       .  A
C986        C987   1.402       .  A
C986      Br1002   1.919       .  S
C987        C988   1.404       .  A
C987        H991   1.083       .  S
C988        C992   1.473       .  S
C988        C989   1.406       .  A
C989        C990   1.391       .  A
C989      Br1001   1.920       .  S
C990        H993   1.084       .  S
C992        C994   1.395       .  A
C992        C998   1.397       .  A
C994        C995   1.399       .  A
C994        H999   1.083       .  S
C995        C996   1.435       .  A
C995      Br1003   1.925       .  S
C996        C997   1.422       .  A
C997        C998   1.395       .  A
C997       H1000   1.069       .  S
C998      Br1004   1.921       .  S
C1005      C1006   1.429       .  A
C1005      C1010   1.422       .  A
C1006      C1007   1.405       .  A
C1006     Br1022   1.919       .  S
C1007      C1008   1.399       .  A
C1007      H1011   1.083       .  S
C1008      C1012   1.471       .  S
C1008      C1009   1.397       .  A
C1009      C1010   1.388       .  A
C1009     Br1021   1.921       .  S
C1010      H1013   1.080       .  S
C1012      C1014   1.399       .  A
C1012      C1018   1.404       .  A
C1014      C1015   1.393       .  A
C1014      H1019   1.084       .  S
C1015      C1016   1.416       .  A
C1015     Br1023   1.923       .  S
C1016      C1017   1.409       .  A
C1017      C1018   1.402       .  A
C1017      H1020   1.083       .  S
C1018     Br1024   1.916       .  S
C1025      C1026   1.438       .  A
C1025      C1030   1.423       .  A
C1026      C1027   1.407       .  A
C1026     Br1042   1.927       .  S
C1027      C1028   1.399       .  A
C1027      H1031   1.084       .  S
C1028      C1032   1.478       .  S
C1028      C1029   1.397       .  A
C1029      C1030   1.388       .  A
C1029     Br1041   1.921       .  S
C1030      H1033   1.081       .  S
C1032      C1034   1.405       .  A
C1032      C1038   1.408       .  A
C1034      C1035   1.399       .  A
C1034      H1039   1.084       .  S
C1035      C1036   1.406       .  A
C1035     Br1043   1.919       .  S
C1036      C1037   1.403       .  A
C1037      C1038   1.399       .  A
C1037      H1040   1.084       .  S
C1038     Br1044   1.918       .  S
C1045      C1046   1.439       .  A
C1045      C1050   1.423       .  A
C1046      C1047   1.397       .  A
C1046     Br1062   1.925       .  S
C1047      C1048   1.392       .  A
C1047      H1051   1.085       .  S
C1048      C1052   1.472       .  S
C1048      C1049   1.395       .  A
C1049      C1050   1.396       .  A
C1049     Br1061   1.917       .  S
C1050      H1053   1.080       .  S
C1052      C1054   1.402       .  A
C1052      C1058   1.405       .  A
C1054      C1055   1.403       .  A
C1054      H1059   1.083       .  S
C1055      C1056   1.413       .  A
C1055     Br1063   1.918       .  S
C1056      C1057   1.406       .  A
C1057      C1058   1.393       .  A
C1057      H1060   1.084       .  S
C1058     Br1064   1.922       .  S
C1065      C1066   1.436       .  A
C1065      C1070   1.424       .  A
C1066      C1067   1.393       .  A
C1066     Br1082   1.918       .  S
C1067      C1068   1.390       .  A
C1067      H1071   1.085       .  S
C1068      C1072   1.483       .  S
C1068      C1069   1.402       .  A
C1069      C1070   1.408       .  A
C1069     Br1081   1.916       .  S
C1070      H1073   1.078       .  S
C1072      C1074   1.402       .  A
C1072      C1078   1.410       .  A
C1074      C1075   1.399       .  A
C1074      H1079   1.084       .  S
C1075      C1076   1.409       .  A
C1075     Br1083   1.918       .  S
C1076      C1077   1.405       .  A
C1077      C1078   1.406       .  A
C1077      H1080   1.083       .  S
C1078     Br1084   1.918       .  S
C1085      C1086   1.410       .  A
C1085      C1090   1.400       .  A
C1086      C1087   1.404       .  A
C1086     Br1102   1.917       .  S
C1087      C1088   1.405       .  A
C1087      H1091   1.083       .  S
C1088      C1092   1.479       .  S
C1088      C1089   1.408       .  A
C1089      C1090   1.393       .  A
C1089     Br1101   1.916       .  S
C1090      H1093   1.084       .  S
C1092      C1094   1.398       .  A
C1092      C1098   1.401       .  A
C1094      C1095   1.404       .  A
C1094      H1099   1.083       .  S
C1095      C1096   1.431       .  A
C1095     Br1103   1.917       .  S
C1096      C1097   1.421       .  A
C1097      C1098   1.394       .  A
C1097      H1100   1.078       .  S
C1098     Br1104   1.922       .  S
C1105      C1106   1.433       .  A
C1105      C1110   1.422       .  A
C1106      C1107   1.407       .  A
C1106     Br1122   1.919       .  S
C1107      C1108   1.397       .  A
C1107      H1111   1.083       .  S
C1108      C1112   1.475       .  S
C1108      C1109   1.395       .  A
C1109      C1110   1.391       .  A
C1109     Br1121   1.920       .  S
C1110      H1113   1.076       .  S
C1112      C1114   1.401       .  A
C1112      C1118   1.404       .  A
C1114      C1115   1.394       .  A
C1114      H1119   1.084       .  S
C1115      C1116   1.413       .  A
C1115     Br1123   1.922       .  S
C1116      C1117   1.409       .  A
C1117      C1118   1.402       .  A
C1117      H1120   1.083       .  S
C1118     Br1124   1.916       .  S
C1125      C1126   1.435       .  A
C1125      C1130   1.425       .  A
C1126      C1127   1.405       .  A
C1126     Br1142   1.918       .  S
C1127      C1128   1.395       .  A
C1127      H1131   1.084       .  S
C1128      C1132   1.485       .  S
C1128      C1129   1.399       .  A
C1129      C1130   1.399       .  A
C1129     Br1141   1.920       .  S
C1130      H1133   1.075       .  S
C1132      C1134   1.401       .  A
C1132      C1138   1.408       .  A
C1134      C1135   1.401       .  A
C1134      H1139   1.084       .  S
C1135      C1136   1.416       .  A
C1135     Br1143   1.922       .  S
C1136      C1137   1.407       .  A
C1137      C1138   1.405       .  A
C1137      H1140   1.083       .  S
C1138     Br1144   1.917       .  S
C1145      C1146   1.412       .  A
C1145      C1150   1.407       .  A
C1146      C1147   1.396       .  A
C1146     Br1162   1.922       .  S
C1147      C1148   1.401       .  A
C1147      H1151   1.083       .  S
C1148      C1152   1.480       .  S
C1148      C1149   1.408       .  A
C1149      C1150   1.405       .  A
C1149     Br1161   1.917       .  S
C1150      H1153   1.083       .  S
C1152      C1154   1.397       .  A
C1152      C1158   1.399       .  A
C1154      C1155   1.406       .  A
C1154      H1159   1.084       .  S
C1155      C1156   1.434       .  A
C1155     Br1163   1.919       .  S
C1156      C1157   1.422       .  A
C1157      C1158   1.396       .  A
C1157      H1160   1.077       .  S
C1158     Br1164   1.920       .  S
C1165      C1166   1.409       .  A
C1165      C1170   1.401       .  A
C1166      C1167   1.403       .  A
C1166     Br1182   1.919       .  S
C1167      C1168   1.404       .  A
C1167      H1171   1.083       .  S
C1168      C1172   1.477       .  S
C1168      C1169   1.407       .  A
C1169      C1170   1.396       .  A
C1169     Br1181   1.920       .  S
C1170      H1173   1.084       .  S
C1172      C1174   1.391       .  A
C1172      C1178   1.399       .  A
C1174      C1175   1.391       .  A
C1174      H1179   1.085       .  S
C1175      C1176   1.435       .  A
C1175     Br1183   1.919       .  S
C1176      C1177   1.423       .  A
C1177      C1178   1.404       .  A
C1177      H1180   1.077       .  S
C1178     Br1184   1.916       .  S
C1185      C1186   1.415       .  A
C1185      C1190   1.409       .  A
C1186      C1187   1.390       .  A
C1186     Br1202   1.925       .  S
C1187      C1188   1.397       .  A
C1187      H1191   1.080       .  S
C1188      C1192   1.479       .  S
C1188      C1189   1.408       .  A
C1189      C1190   1.407       .  A
C1189     Br1201   1.916       .  S
C1190      H1193   1.083       .  S
C1192      C1194   1.401       .  A
C1192      C1198   1.400       .  A
C1194      C1195   1.408       .  A
C1194      H1199   1.083       .  S
C1195      C1196   1.427       .  A
C1195     Br1203   1.913       .  S
C1196      C1197   1.423       .  A
C1197      C1198   1.393       .  A
C1197      H1200   1.080       .  S
C1198     Br1204   1.921       .  S
C1205      C1206   1.408       .  A
C1205      C1210   1.399       .  A
C1206      C1207   1.400       .  A
C1206     Br1222   1.917       .  S
C1207      C1208   1.402       .  A
C1207      H1211   1.083       .  S
C1208      C1212   1.476       .  S
C1208      C1209   1.410       .  A
C1209      C1210   1.396       .  A
C1209     Br1221   1.920       .  S
C1210      H1213   1.084       .  S
C1212      C1214   1.392       .  A
C1212      C1218   1.400       .  A
C1214      C1215   1.393       .  A
C1214      H1219   1.084       .  S
C1215      C1216   1.434       .  A
C1215     Br1223   1.918       .  S
C1216      C1217   1.421       .  A
C1217      C1218   1.402       .  A
C1217      H1220   1.078       .  S
C1218     Br1224   1.916       .  S
C1225      C1226   1.412       .  A
C1225      C1230   1.405       .  A
C1226      C1227   1.404       .  A
C1226     Br1242   1.917       .  S
C1227      C1228   1.403       .  A
C1227      H1231   1.083       .  S
C1228      C1232   1.478       .  S
C1228      C1229   1.407       .  A
C1229      C1230   1.395       .  A
C1229     Br1241   1.922       .  S
C1230      H1233   1.084       .  S
C1232      C1234   1.394       .  A
C1232      C1238   1.395       .  A
C1234      C1235   1.403       .  A
C1234      H1239   1.085       .  S
C1235      C1236   1.441       .  A
C1235     Br1243   1.924       .  S
C1236      C1237   1.426       .  A
C1237      C1238   1.395       .  A
C1237      H1240   1.083       .  S
C1238     Br1244   1.918       .  S
C1245      C1246   1.437       .  A
C1245      C1250   1.423       .  A
C1246      C1247   1.394       .  A
C1246     Br1262   1.927       .  S
C1247      C1248   1.392       .  A
C1247      H1251   1.084       .  S
C1248      C1252   1.478       .  S
C1248      C1249   1.400       .  A
C1249      C1250   1.403       .  A
C1249     Br1261   1.916       .  S
C1250      H1253   1.078       .  S
C1252      C1254   1.404       .  A
C1252      C1258   1.407       .  A
C1254      C1255   1.401       .  A
C1254      H1259   1.083       .  S
C1255      C1256   1.406       .  A
C1255     Br1263   1.918       .  S
C1256      C1257   1.403       .  A
C1257      C1258   1.400       .  A
C1257      H1260   1.084       .  S
C1258     Br1264   1.918       .  S
C1265      C1266   1.437       .  A
C1265      C1270   1.421       .  A
C1266      C1267   1.399       .  A
C1266     Br1282   1.926       .  S
C1267      C1268   1.394       .  A
C1267      H1271   1.083       .  S
C1268      C1272   1.471       .  S
C1268      C1269   1.397       .  A
C1269      C1270   1.393       .  A
C1269     Br1281   1.922       .  S
C1270      H1273   1.068       .  S
C1272      C1274   1.396       .  A
C1272      C1278   1.405       .  A
C1274      C1275   1.392       .  A
C1274      H1279   1.084       .  S
C1275      C1276   1.418       .  A
C1275     Br1283   1.924       .  S
C1276      C1277   1.408       .  A
C1277      C1278   1.402       .  A
C1277      H1280   1.083       .  S
C1278     Br1284   1.917       .  S
C1285      C1286   1.419       .  A
C1285      C1290   1.404       .  A
C1286      C1287   1.409       .  A
C1286     Br1302   1.918       .  S
C1287      C1288   1.403       .  A
C1287      H1291   1.083       .  S
C1288      C1292   1.484       .  S
C1288      C1289   1.406       .  A
C1289      C1290   1.394       .  A
C1289     Br1301   1.915       .  S
C1290      H1293   1.084       .  S
C1292      C1294   1.400       .  A
C1292      C1298   1.399       .  A
C1294      C1295   1.408       .  A
C1294      H1299   1.083       .  S
C1295      C1296   1.431       .  A
C1295     Br1303   1.920       .  S
C1296      C1297   1.422       .  A
C1297      C1298   1.396       .  A
C1297      H1300   1.079       .  S
C1298     Br1304   1.919       .  S
