geometry optimzed in LAMMPS
_audit_creation_date              2020-12-01 
_audit_creation_method            'lammps2cif' 
_symmetry_space_group_name_H-M    'P1' 
_symmetry_Int_Tables_number       1 
_symmetry_cell_setting            triclinic 
loop_ 
_symmetry_equiv_pos_as_xyz 
  x,y,z 
_cell_length_a                    19.92562546 
_cell_length_b                    22.142182618552404 
_cell_length_c                    25.295693200756617 
_cell_angle_alpha                 89.6718584637832 
_cell_angle_beta                  90.3536566252285 
_cell_angle_gamma                 89.97134807573417 
loop_ 
_atom_site_label 
_atom_site_type_symbol 
_atom_site_fract_x 
_atom_site_fract_y 
_atom_site_fract_z 
_atom_site_charge 
O1          O  0.24393094  0.30707354  0.94831895    -0.67100
O2          O  0.21437465  0.17881598  0.05784766    -0.67900
O3          O  0.21217236  0.18304146  0.94488247    -0.56700
O4          O  0.24623257  0.30313796  0.06095871    -0.65100
O5          O  0.13703976  0.32276597  0.06294107    -0.64600
O6          O  0.10287716  0.20233211  0.94724624    -0.55900
O7          O  0.10509065  0.19861893  0.05906337    -0.68400
O8          O  0.13452177  0.32633560  0.94924995    -0.67200
Cu9        Cu  0.23297466  0.24218563  0.00299184     1.04600
Cu10       Cu  0.11615688  0.26350725  0.00469433     1.04300
C11         C  0.19293944  0.33524667  0.93003105     0.99100
C12         C  0.15576629  0.16942416  0.07654912     0.98300
C13         C  0.15264452  0.17463158  0.92709768     0.90400
C14         C  0.19642451  0.33071251  0.08125159     0.96700
C15         C  0.18745812  0.09564624  0.21157157     0.03400
C16         C  0.16862088  0.40470743  0.21820371     0.03400
C17         C  0.35427839  0.15448094  0.29385791     0.03400
C18         C  0.99868243  0.34396190  0.29430986     0.03400
O19         O  0.07266831  0.44721172  0.55985521    -0.67100
O20         O  0.03987236  0.06828805  0.44884842    -0.68100
O21         O  0.02594430  0.06873666  0.56142536    -0.56700
O22         O  0.07318920  0.44712260  0.44840210    -0.65100
O23         O  0.26210776  0.45451211  0.45031062    -0.64600
O24         O  0.23968178  0.06105916  0.55353278    -0.55900
O25         O  0.24549164  0.05974778  0.44132364    -0.68400
O26         O  0.28873037  0.44723141  0.56123439    -0.67200
Cu27       Cu  0.06254156  0.51050805  0.50359529     1.04600
Cu28       Cu  0.27616310  0.51435336  0.50825932     1.04300
C29         C  0.34631096  0.42434199  0.57174280     0.99100
C30         C  0.30247331  0.07791838  0.42462338     0.98300
C31         C  0.29507402  0.07930187  0.57344163     0.90400
C32         C  0.31125689  0.43305294  0.42438068     0.96700
C33         C  0.17751657  0.10049874  0.79060675     0.03400
C34         C  0.15971115  0.40496229  0.79284801     0.03400
C35         C  0.00656154  0.15859541  0.71133741     0.03400
C36         C  0.32065498  0.34462321  0.70554195     0.03400
C37         C  0.00049938  0.22486788  0.70800244    -0.07400
C38         C  0.32719273  0.27849264  0.70000987    -0.09000
C39         C  0.05026301  0.37075615  0.73936122    -0.07400
C40         C  0.09955165  0.38988177  0.76167419    -0.09000
C41         C  0.21783493  0.37825477  0.76592522    -0.07400
C42         C  0.26455083  0.35903198  0.74084873    -0.09000
C43         C  0.11679953  0.12534481  0.76506430    -0.07400
C44         C  0.06708045  0.14309453  0.74220648    -0.09000
C45         C  0.23501471  0.11612448  0.75736664    -0.07400
C46         C  0.28309028  0.13384207  0.73313676    -0.09000
C47         C  0.16753397  0.47122064  0.79583028    -0.07400
C48         C  0.17236661  0.03415278  0.79376004    -0.09000
C49         C  0.35417797  0.38014957  0.61507796    -0.10600
C50         C  0.30747476  0.37532165  0.65293083    -0.25700
H51         H  0.40248617  0.35790664  0.62024430     0.18400
H52         H  0.93275088  0.39669364  0.65118214     0.19000
C53         C  0.96017493  0.12246708  0.62347467    -0.10600
C54         C  0.01239668  0.13037620  0.65707501    -0.25700
H55         H  0.24627475  0.14410586  0.62705473     0.18400
H56         H  0.06041192  0.10997741  0.64707921     0.19000
C57         C  0.98523870  0.37015579  0.34837437    -0.10600
C58         C  0.03322816  0.37738747  0.38526808    -0.25700
H59         H  0.39550905  0.36358594  0.37040997     0.18400
H60         H  0.08360492  0.36061023  0.37821084     0.19000
C61         C  0.35823780  0.12459844  0.34789094    -0.10600
C62         C  0.30463149  0.12104397  0.38005693    -0.25700
H63         H  0.07655699  0.10307100  0.35482495     0.18400
H64         H  0.25829547  0.14388966  0.36895403     0.19000
C65         C  0.34863435  0.22081470  0.29768142    -0.07400
C66         C  0.00558754  0.27741390  0.29642324    -0.09000
C67         C  0.05980989  0.37023079  0.27135848    -0.07400
C68         C  0.10958098  0.38911986  0.24994778    -0.09000
C69         C  0.27726186  0.36046575  0.26857249    -0.07400
C70         C  0.22818318  0.37941031  0.24538601    -0.09000
C71         C  0.12883495  0.12290233  0.23738795    -0.07400
C72         C  0.08048592  0.14208039  0.26046419    -0.09000
C73         C  0.29584815  0.13059990  0.26531149    -0.07400
C74         C  0.24690740  0.11155113  0.24278374    -0.09000
C75         C  0.17997851  0.02944519  0.21052424    -0.07400
C76         C  0.17429123  0.47121373  0.21496216    -0.09000
C77         C  0.19710972  0.12130685  0.15675295    -0.10600
C78         C  0.14694089  0.12811010  0.12160727    -0.25700
H79         H  0.24559321  0.14143589  0.14749730     0.18400
H80         H  0.09689326  0.11186303  0.13086346     0.19000
C81         C  0.20754520  0.36932762  0.12814631    -0.10600
C82         C  0.15849806  0.37679771  0.16391030    -0.25700
H83         H  0.25800009  0.38514017  0.13683900     0.18400
H84         H  0.10967729  0.35697728  0.15511589     0.19000
C85         C  0.18937587  0.12832365  0.84452869    -0.10600
C86         C  0.14118191  0.13526156  0.88098428    -0.25700
H87         H  0.23811345  0.14884107  0.85225639     0.18400
H88         H  0.09080132  0.11870799  0.87320551     0.19000
C89         C  0.20097603  0.37453741  0.88341403    -0.10600
C90         C  0.15130023  0.37779921  0.84733677    -0.25700
H91         H  0.25018833  0.39291300  0.87447365     0.18400
H92         H  0.10389292  0.35557176  0.85630098     0.19000
O93         O  0.25057137  0.79931343  0.95006365    -0.67100
O94         O  0.20622586  0.68226442  0.06452856    -0.67900
O95         O  0.20583877  0.67950072  0.95159553    -0.56700
O96         O  0.24850125  0.80365355  0.06309267    -0.65100
O97         O  0.14153836  0.83187997  0.06107403    -0.64600
O98         O  0.09968524  0.71019203  0.95072003    -0.55900
O99         O  0.09958345  0.71152106  0.06321318    -0.68400
O100        O  0.14434413  0.82977044  0.94814568    -0.67200
Cu101      Cu  0.23153782  0.74007635  0.00746258     1.04600
Cu102      Cu  0.11766376  0.77198739  0.00575460     1.04300
C103        C  0.20387962  0.83106293  0.92942301     0.99100
C104        C  0.14687004  0.67953815  0.08306473     0.98300
C105        C  0.14634017  0.67727542  0.93225637     0.90400
C106        C  0.20037236  0.83568689  0.08097774     0.96700
C107        C  0.17914220  0.59269957  0.21346070     0.03400
C108        C  0.16992505  0.90876429  0.21691801     0.03400
C109        C  0.35045383  0.65880911  0.28729970     0.03400
C110        C  0.99804918  0.84688817  0.29066985     0.03400
O111        O  0.03591592  0.94201588  0.56513760    -0.67100
O112        O  0.04414834  0.57230351  0.44688905    -0.68100
O113        O  0.04497362  0.57219421  0.55941147    -0.56700
O114        O  0.05535706  0.94134704  0.45408563    -0.65100
O115        O  0.24189141  0.93129007  0.44278740    -0.64600
O116        O  0.29720825  0.57386489  0.56492658    -0.55900
O117        O  0.27161242  0.58083602  0.45390987    -0.68400
O118        O  0.23618882  0.93295464  0.55604308    -0.67200
Cu119      Cu  0.04309074  0.00550764  0.50771727     1.04600
Cu120      Cu  0.23687149  0.99620275  0.49821992     1.04300
C121        C  0.29081914  0.91403055  0.57703401     0.99100
C122        C  0.32360176  0.59581815  0.42768693     0.98300
C123        C  0.35710435  0.58953605  0.57680940     0.90400
C124        C  0.29801768  0.91198261  0.42547328     0.96700
C125        C  0.17362634  0.59226407  0.80153289     0.03400
C126        C  0.17340224  0.91297793  0.79666339     0.03400
C127        C  0.01273572  0.65566547  0.71278512     0.03400
C128        C  0.33795720  0.84706402  0.71413203     0.03400
C129        C  0.01034193  0.72254022  0.71020861    -0.07400
C130        C  0.33601587  0.78016864  0.71254705    -0.09000
C131        C  0.06808810  0.86401971  0.74699863    -0.07400
C132        C  0.11488656  0.88696846  0.76973634    -0.09000
C133        C  0.23340386  0.89085327  0.76854471    -0.07400
C134        C  0.28006082  0.87062234  0.74379879    -0.09000
C135        C  0.11400466  0.61674138  0.77397242    -0.07400
C136        C  0.06778279  0.63678256  0.74818635    -0.09000
C137        C  0.23225858  0.61645591  0.77362853    -0.07400
C138        C  0.27850930  0.63835350  0.74956949    -0.09000
C139        C  0.17111939  0.97946438  0.79422392    -0.07400
C140        C  0.17230148  0.52572216  0.79833394    -0.09000
C141        C  0.28830680  0.87515895  0.62480025    -0.10600
C142        C  0.34043446  0.87423196  0.65895455    -0.25700
H143        H  0.24115052  0.85385954  0.63555194     0.18400
H144        H  0.06701062  0.90040210  0.65370378     0.19000
C145        C  0.97709885  0.62400262  0.62166093    -0.10600
C146        C  0.02531660  0.62893834  0.65883673    -0.25700
H147        H  0.41841721  0.64743572  0.62981588     0.18400
H148        H  0.07310633  0.60638877  0.65219295     0.19000
C149        C  0.97855876  0.87498548  0.34291828    -0.10600
C150        C  0.02022667  0.87844584  0.38451513    -0.25700
H151        H  0.39297397  0.90091022  0.35386426     0.18400
H152        H  0.06979861  0.85817096  0.38225930     0.19000
C153        C  0.36150726  0.63208896  0.34175833    -0.10600
C154        C  0.31620777  0.63521914  0.38087027    -0.25700
H155        H  0.07457486  0.61407172  0.35884158     0.18400
H156        H  0.26949599  0.65968378  0.37474709     0.19000
C157        C  0.34787446  0.72542131  0.28962557    -0.07400
C158        C  0.00426924  0.78028413  0.29471666    -0.09000
C159        C  0.06120768  0.87292873  0.27045212    -0.07400
C160        C  0.11123922  0.89216150  0.24925652    -0.09000
C161        C  0.28196429  0.86701471  0.26335942    -0.07400
C162        C  0.23076914  0.88529313  0.24311107    -0.09000
C163        C  0.12028020  0.61778533  0.24068274    -0.07400
C164        C  0.07287692  0.64008773  0.26278705    -0.09000
C165        C  0.28833401  0.63483089  0.26346452    -0.07400
C166        C  0.23903953  0.61426676  0.24201629    -0.09000
C167        C  0.17707383  0.52596836  0.21445938    -0.07400
C168        C  0.17471877  0.97500626  0.21235087    -0.09000
C169        C  0.18371258  0.61450845  0.15672393    -0.10600
C170        C  0.13367915  0.64318288  0.13057792    -0.25700
H171        H  0.23221928  0.60978208  0.13762544     0.18400
H172        H  0.08379175  0.64624124  0.14733893     0.19000
C173        C  0.21115420  0.87411203  0.12763628    -0.10600
C174        C  0.16120475  0.88058527  0.16290908    -0.25700
H175        H  0.26139871  0.89020631  0.13670375     0.18400
H176        H  0.11285227  0.85994361  0.15388539     0.19000
C177        C  0.17959657  0.61148612  0.85880626    -0.10600
C178        C  0.13139651  0.64123738  0.88497735    -0.25700
H179        H  0.22808207  0.60475568  0.87799821     0.18400
H180        H  0.08166111  0.64636915  0.86777348     0.19000
C181        C  0.21829749  0.86466200  0.88053085    -0.10600
C182        C  0.16933431  0.89360907  0.85393464    -0.25700
H183        H  0.26749022  0.85882392  0.86317104     0.18400
H184        H  0.12145192  0.90080289  0.87337462     0.19000
O185        O  0.57620673  0.30388378  0.93974819    -0.67100
O186        O  0.54648876  0.17992655  0.05386743    -0.67900
O187        O  0.54467047  0.17974363  0.94019021    -0.56700
O188        O  0.57823133  0.30412433  0.05245307    -0.65100
O189        O  0.46890292  0.32344060  0.05360932    -0.64600
O190        O  0.43531822  0.19902027  0.94147918    -0.55900
O191        O  0.43713528  0.19932191  0.05380776    -0.68400
O192        O  0.46681222  0.32307066  0.93971127    -0.67200
Cu193      Cu  0.56518202  0.24102570  0.99656576     1.04600
Cu194      Cu  0.44831958  0.26215826  0.99718126     1.04300
C195        C  0.52535154  0.33149293  0.92047726     0.99100
C196        C  0.48781748  0.17132082  0.07283791     0.98300
C197        C  0.48535479  0.17106490  0.92206176     0.90400
C198        C  0.52816200  0.33203183  0.07190465     0.96700
C199        C  0.52018012  0.09793985  0.20939305     0.03400
C200        C  0.50058388  0.40389726  0.20901472     0.03400
C201        C  0.68680989  0.15699733  0.29179448     0.03400
C202        C  0.33959727  0.34191224  0.29628681     0.03400
O203        O  0.39838399  0.44176248  0.54692492    -0.67100
O204        O  0.35683945  0.05724920  0.44472462    -0.68100
O205        O  0.35099627  0.05833222  0.55715704    -0.56700
O206        O  0.37173987  0.44700537  0.43644365    -0.65100
O207        O  0.56116806  0.44082671  0.43830400    -0.64600
O208        O  0.57489826  0.06247771  0.55076002    -0.55900
O209        O  0.57789030  0.06315923  0.43889124    -0.68400
O210        O  0.55923676  0.43946367  0.55127652    -0.67200
Cu211      Cu  0.39336179  0.50780898  0.49277061     1.04600
Cu212      Cu  0.55855718  0.50454899  0.49522447     1.04300
C213        C  0.61426550  0.41920825  0.57052540     0.99100
C214        C  0.63483633  0.08105644  0.42202230     0.98300
C215        C  0.63090670  0.07990823  0.57014170     0.90400
C216        C  0.61680617  0.42085879  0.42052674     0.96700
C217        C  0.51130767  0.10005290  0.78473951     0.03400
C218        C  0.49262963  0.40181402  0.78250331     0.03400
C219        C  0.34108091  0.15787895  0.70437247     0.03400
C220        C  0.66248135  0.34387484  0.70341929     0.03400
C221        C  0.33396009  0.22408144  0.69945607    -0.07400
C222        C  0.66805620  0.27757948  0.69828199    -0.09000
C223        C  0.38228110  0.36880435  0.72971247    -0.07400
C224        C  0.43264395  0.38667871  0.75125036    -0.09000
C225        C  0.55157989  0.37710928  0.75520842    -0.07400
C226        C  0.60077035  0.35992058  0.73194884    -0.09000
C227        C  0.45079629  0.12511022  0.75899344    -0.07400
C228        C  0.40160785  0.14316791  0.73556146    -0.09000
C229        C  0.56888920  0.11638817  0.75206731    -0.07400
C230        C  0.61758863  0.13398646  0.72870298    -0.09000
C231        C  0.49902048  0.46799779  0.78568724    -0.07400
C232        C  0.50693153  0.03362398  0.78725826    -0.09000
C233        C  0.61274180  0.37703173  0.61586802    -0.10600
C234        C  0.66475978  0.37499346  0.65002183    -0.25700
H235        H  0.56624192  0.35366131  0.62506422     0.18400
H236        H  0.26041745  0.39984544  0.64774529     0.19000
C237        C  0.29366870  0.12249545  0.61758755    -0.10600
C238        C  0.34620176  0.12760709  0.65099390    -0.25700
H239        H  0.58395461  0.14598740  0.62331033     0.18400
H240        H  0.39233914  0.10352824  0.64184241     0.19000
C241        C  0.34613302  0.36668871  0.35184119    -0.10600
C242        C  0.29704462  0.39566978  0.37768918    -0.25700
H243        H  0.71570220  0.40003306  0.35471647     0.18400
H244        H  0.24617819  0.39653403  0.36202365     0.19000
C245        C  0.69060822  0.12803275  0.34604121    -0.10600
C246        C  0.63694451  0.12469075  0.37801031    -0.25700
H247        H  0.40335465  0.09930522  0.35824455     0.18400
H248        H  0.59062956  0.14747031  0.36680956     0.19000
C249        C  0.68020290  0.22346481  0.29510683    -0.07400
C250        C  0.34429472  0.27541785  0.29781688    -0.09000
C251        C  0.39600452  0.36638483  0.26594245    -0.07400
C252        C  0.44296214  0.38646884  0.24161858    -0.09000
C253        C  0.61026206  0.36214616  0.25916085    -0.07400
C254        C  0.56127190  0.37992161  0.23530327    -0.09000
C255        C  0.46180414  0.12224443  0.23765891    -0.07400
C256        C  0.41415037  0.13914963  0.26293683    -0.09000
C257        C  0.62884831  0.13220979  0.26316517    -0.07400
C258        C  0.58007629  0.11296795  0.24048833    -0.09000
C259        C  0.51379544  0.03177393  0.20544020    -0.07400
C260        C  0.50487023  0.47043933  0.20597096    -0.09000
C261        C  0.52829095  0.12703655  0.15549920    -0.10600
C262        C  0.47880135  0.13189393  0.11945215    -0.25700
H263        H  0.57590939  0.14914304  0.14685699     0.18400
H264        H  0.42932992  0.11376170  0.12794713     0.19000
C265        C  0.53864194  0.37128545  0.11826732    -0.10600
C266        C  0.49026277  0.37623817  0.15483827    -0.25700
H267        H  0.58854370  0.38891572  0.12629080     0.18400
H268        H  0.44224051  0.35449370  0.14675555     0.19000
C269        C  0.52260901  0.12716939  0.83895047    -0.10600
C270        C  0.47466565  0.13173395  0.87586667    -0.25700
H271        H  0.57067790  0.14892532  0.84674161     0.18400
H272        H  0.42477268  0.11403209  0.86810330     0.19000
C273        C  0.53392169  0.37008630  0.87321951    -0.10600
C274        C  0.48448096  0.37371258  0.83688878    -0.25700
H275        H  0.58319880  0.38849158  0.86453630     0.18400
H276        H  0.43708533  0.35136098  0.84567454     0.19000
O277        O  0.58669549  0.79450835  0.94016789    -0.67100
O278        O  0.54081324  0.67301252  0.05114413    -0.67900
O279        O  0.54055763  0.67522543  0.93806168    -0.56700
O280        O  0.58550497  0.79262005  0.05365867    -0.65100
O281        O  0.47968437  0.82407947  0.05321244    -0.64600
O282        O  0.43490804  0.70721751  0.93846861    -0.55900
O283        O  0.43486304  0.70418434  0.05137978    -0.68400
O284        O  0.48100915  0.82642679  0.93991042    -0.67200
Cu285      Cu  0.56708087  0.73273821  0.99578790     1.04600
Cu286      Cu  0.45397987  0.76668313  0.99572624     1.04300
C287        C  0.54026567  0.82762444  0.92072976     0.99100
C288        C  0.48169780  0.67098361  0.07029668     0.98300
C289        C  0.48104324  0.67450033  0.91880285     0.90400
C290        C  0.53872437  0.82493094  0.07316730     0.96700
C291        C  0.51236746  0.59169849  0.20424743     0.03400
C292        C  0.50765071  0.91071725  0.20422104     0.03400
C293        C  0.67620022  0.65753947  0.28832908     0.03400
C294        C  0.34439866  0.84677079  0.28931237     0.03400
O295        O  0.34751238  0.93144396  0.55905370    -0.67100
O296        O  0.38101044  0.57330999  0.43906940    -0.68100
O297        O  0.40682750  0.56949369  0.55048358    -0.56700
O298        O  0.35327909  0.93029933  0.44567188    -0.65100
O299        O  0.57236661  0.93492000  0.43821525    -0.64600
O300        O  0.56422384  0.56785717  0.55242688    -0.55900
O301        O  0.56556410  0.56932043  0.43912598    -0.68400
O302        O  0.56940658  0.93428983  0.55132539    -0.67200
Cu303      Cu  0.35595671  0.99406798  0.50179119     1.04600
Cu304      Cu  0.56970427  0.99869549  0.49469860     1.04300
C305        C  0.62411610  0.91407075  0.57118433     0.99100
C306        C  0.62224755  0.58662483  0.42119609     0.98300
C307        C  0.62039735  0.58469990  0.57210504     0.90400
C308        C  0.62783709  0.91520405  0.42002407     0.96700
C309        C  0.50590887  0.58896601  0.78724017     0.03400
C310        C  0.50779577  0.91239059  0.78947834     0.03400
C311        C  0.33391506  0.65839417  0.71559788     0.03400
C312        C  0.67057000  0.84363079  0.70654424     0.03400
C313        C  0.33542916  0.72527793  0.71308309    -0.07400
C314        C  0.66691414  0.77691519  0.70364213    -0.09000
C315        C  0.39875104  0.86666460  0.74233512    -0.07400
C316        C  0.44794054  0.88793136  0.76316828    -0.09000
C317        C  0.56673647  0.88937539  0.76054893    -0.07400
C318        C  0.61298394  0.86798859  0.73608415    -0.09000
C319        C  0.44570363  0.61338358  0.76031876    -0.07400
C320        C  0.39635021  0.63472294  0.73936300    -0.09000
C321        C  0.56470900  0.61058482  0.75787594    -0.07400
C322        C  0.61264196  0.63127781  0.73502750    -0.09000
C323        C  0.50640451  0.97892307  0.78750227    -0.07400
C324        C  0.50339834  0.52251056  0.78644975    -0.09000
C325        C  0.62172155  0.87384662  0.61791807    -0.10600
C326        C  0.67395345  0.87181777  0.65191355    -0.25700
H327        H  0.57450030  0.85263807  0.62837416     0.18400
H328        H  0.38573700  0.89868366  0.64790121     0.19000
C329        C  0.36897382  0.62807596  0.62344781    -0.10600
C330        C  0.32207636  0.63144458  0.66144956    -0.25700
H331        H  0.57448934  0.64779681  0.62902183     0.18400
H332        H  0.27431037  0.60880248  0.65461042     0.19000
C333        C  0.34925788  0.87345052  0.34436419    -0.10600
C334        C  0.29848627  0.87143380  0.37933490    -0.25700
H335        H  0.72326242  0.90052575  0.34938702     0.18400
H336        H  0.25272824  0.84722693  0.36943451     0.19000
C337        C  0.67785638  0.62970989  0.34325100    -0.10600
C338        C  0.62403818  0.62803961  0.37523491    -0.25700
H339        H  0.40665136  0.60520927  0.34831929     0.18400
H340        H  0.57787621  0.65051752  0.36317934     0.19000
C341        C  0.67278748  0.72427043  0.29030085    -0.07400
C342        C  0.34610602  0.78011458  0.29085181    -0.09000
C343        C  0.40123737  0.86902203  0.25763420    -0.07400
C344        C  0.44836245  0.88899586  0.23316929    -0.09000
C345        C  0.61502882  0.86779507  0.25652570    -0.07400
C346        C  0.56711214  0.88764796  0.23271977    -0.09000
C347        C  0.45320081  0.61792322  0.23027385    -0.07400
C348        C  0.40652986  0.63956238  0.25382913    -0.09000
C349        C  0.61876957  0.63318050  0.25821803    -0.07400
C350        C  0.57151135  0.61227451  0.23433148    -0.09000
C351        C  0.50847419  0.52511127  0.20532317    -0.07400
C352        C  0.50944976  0.97724335  0.20439040    -0.09000
C353        C  0.51972113  0.61333162  0.14772171    -0.10600
C354        C  0.46853867  0.63407324  0.11762114    -0.25700
H355        H  0.57062909  0.61705687  0.13263062     0.18400
H356        H  0.41718651  0.63117635  0.13155473     0.19000
C357        C  0.55209471  0.85922830  0.12192225    -0.10600
C358        C  0.50271862  0.88851082  0.14761796    -0.25700
H359        H  0.60159606  0.85454225  0.13964781     0.18400
H360        H  0.45450938  0.89460392  0.12781454     0.19000
C361        C  0.51343070  0.61012744  0.84395041    -0.10600
C362        C  0.46562441  0.63995735  0.87069626    -0.25700
H363        H  0.56219035  0.60339477  0.86263361     0.18400
H364        H  0.41561102  0.64515638  0.85414937     0.19000
C365        C  0.55421758  0.86260884  0.87242038    -0.10600
C366        C  0.50493963  0.89235499  0.84671704    -0.25700
H367        H  0.60311837  0.85681006  0.85440856     0.18400
H368        H  0.45746433  0.89951563  0.86687142     0.19000
O369        O  0.90403949  0.30319741  0.94415957    -0.67100
O370        O  0.87568210  0.17294800  0.05231451    -0.67900
O371        O  0.86880681  0.18004763  0.93881258    -0.56700
O372        O  0.91043899  0.29495245  0.05590581    -0.65100
O373        O  0.80225382  0.31846203  0.06068180    -0.64600
O374        O  0.76072748  0.20393423  0.94287831    -0.55900
O375        O  0.76713871  0.19530022  0.05607747    -0.68400
O376        O  0.79568153  0.32628742  0.94820254    -0.67200
Cu377      Cu  0.89340470  0.23674368  0.99756744     1.04600
Cu378      Cu  0.77762492  0.26179002  0.00213818     1.04300
C379        C  0.85381766  0.33423034  0.92821563     0.99100
C380        C  0.81790204  0.16562060  0.07309126     0.98300
C381        C  0.80884889  0.17574201  0.92087561     0.90400
C382        C  0.86256505  0.32362264  0.07762796     0.96700
C383        C  0.85344098  0.09561542  0.21056043     0.03400
C384        C  0.83593163  0.40828756  0.20862399     0.03400
C385        C  0.02121403  0.15660831  0.29227594     0.03400
C386        C  0.67034680  0.34455348  0.28988693     0.03400
O387        O  0.67061569  0.43755105  0.55270009    -0.67100
O388        O  0.68925503  0.05937435  0.44117579    -0.68100
O389        O  0.68621275  0.05821916  0.55332446    -0.56700
O390        O  0.67251195  0.43889462  0.44013806    -0.65100
O391        O  0.96348553  0.42939510  0.44674000    -0.64600
O392        O  0.91539370  0.05841927  0.55573357    -0.55900
O393        O  0.92875633  0.06266029  0.44379390    -0.68400
O394        O  0.96280357  0.43009672  0.55947060    -0.67200
Cu395      Cu  0.67762779  0.50153195  0.49689378     1.04600
Cu396      Cu  0.94513196  0.49146352  0.50275502     1.04300
C397        C  0.02145420  0.41990798  0.57824648     0.99100
C398        C  0.98402802  0.08479631  0.42783696     0.98300
C399        C  0.96724096  0.08214207  0.57740286     0.90400
C400        C  0.02266438  0.41910616  0.42953153     0.96700
C401        C  0.83953944  0.09228669  0.78887990     0.03400
C402        C  0.82302041  0.40607468  0.79222100     0.03400
C403        C  0.67742779  0.15643022  0.70158784     0.03400
C404        C  0.99030158  0.34561014  0.71326754     0.03400
C405        C  0.67337587  0.22299508  0.69756429    -0.07400
C406        C  0.99619764  0.27940818  0.70904592    -0.09000
C407        C  0.71927145  0.36633685  0.73488546    -0.07400
C408        C  0.76559326  0.38711537  0.75973875    -0.09000
C409        C  0.88324119  0.37968716  0.76830368    -0.07400
C410        C  0.93197184  0.36074067  0.74572937    -0.09000
C411        C  0.78159158  0.11768391  0.75977418    -0.07400
C412        C  0.73555936  0.13837234  0.73413671    -0.09000
C413        C  0.89992055  0.11339429  0.76160258    -0.07400
C414        C  0.94846229  0.13359656  0.73942806    -0.09000
C415        C  0.82879741  0.47260451  0.79171048    -0.07400
C416        C  0.83720053  0.02580858  0.78729203    -0.09000
C417        C  0.02981765  0.37925184  0.62385966    -0.10600
C418        C  0.98042435  0.37424308  0.65950593    -0.25700
H419        H  0.07921596  0.36055349  0.63239461     0.18400
H420        H  0.70904177  0.40192876  0.64092914     0.19000
C421        C  0.63072759  0.12324193  0.61412092    -0.10600
C422        C  0.68298200  0.12689646  0.64793282    -0.25700
H423        H  0.91072341  0.13952957  0.63346185     0.18400
H424        H  0.72841141  0.10162196  0.63917806     0.19000
C425        C  0.67084340  0.37492804  0.34356691    -0.10600
C426        C  0.61672226  0.37906250  0.37509343    -0.25700
H427        H  0.93641074  0.39072181  0.35529313     0.18400
H428        H  0.56994103  0.35737434  0.36373434     0.19000
C429        C  0.03065392  0.12822464  0.34654198    -0.10600
C430        C  0.98157513  0.12694585  0.38259723    -0.25700
H431        H  0.73573257  0.10291333  0.35672096     0.18400
H432        H  0.93420981  0.14930165  0.37378745     0.19000
C433        C  0.01293204  0.22297436  0.29567729    -0.07400
C434        C  0.67443262  0.27804979  0.29479785    -0.09000
C435        C  0.72904219  0.36619504  0.26047585    -0.07400
C436        C  0.77694187  0.38653745  0.23747156    -0.09000
C437        C  0.94228534  0.36138736  0.25975756    -0.07400
C438        C  0.89531840  0.38260907  0.23562009    -0.09000
C439        C  0.79506732  0.12135837  0.23802960    -0.07400
C440        C  0.74722745  0.14075369  0.26176101    -0.09000
C441        C  0.96218530  0.13017412  0.26543060    -0.07400
C442        C  0.91364193  0.11087614  0.24199222    -0.09000
C443        C  0.84629414  0.02923062  0.20667078    -0.07400
C444        C  0.83873890  0.47485321  0.21033595    -0.09000
C445        C  0.86076510  0.12366735  0.15609772    -0.10600
C446        C  0.81070545  0.12650351  0.12010819    -0.25700
H447        H  0.90776133  0.14649959  0.14699744     0.18400
H448        H  0.76177312  0.10770412  0.12932521     0.19000
C449        C  0.87731090  0.35888026  0.12524691    -0.10600
C450        C  0.82878265  0.38770798  0.15189469    -0.25700
H451        H  0.92771058  0.35533939  0.14145467     0.18400
H452        H  0.77974409  0.39331801  0.13332112     0.19000
C453        C  0.84430770  0.11298089  0.84588443    -0.10600
C454        C  0.79527338  0.14232250  0.87170266    -0.25700
H455        H  0.89218714  0.10597485  0.86587933     0.18400
H456        H  0.74585079  0.14737634  0.85400778     0.19000
C457        C  0.86239691  0.37579066  0.88322467    -0.10600
C458        C  0.81255225  0.38180038  0.84754758    -0.25700
H459        H  0.91240414  0.39214823  0.87410809     0.18400
H460        H  0.76424210  0.36124377  0.85652129     0.19000
O461        O  0.91502129  0.78639794  0.93942661    -0.67100
O462        O  0.87683338  0.66923507  0.05583860    -0.67900
O463        O  0.87454977  0.66576312  0.94291922    -0.56700
O464        O  0.91592897  0.79050231  0.05196591    -0.65100
O465        O  0.80862131  0.81767351  0.05179264    -0.64600
O466        O  0.76695764  0.69215466  0.94267380    -0.55900
O467        O  0.76915065  0.69517598  0.05548782    -0.68400
O468        O  0.80789233  0.81407575  0.93808868    -0.67200
Cu469      Cu  0.89918146  0.72696528  0.99758355     1.04600
Cu470      Cu  0.78434614  0.75589081  0.99702392     1.04300
C471        C  0.86722569  0.81710397  0.91904189     0.99100
C472        C  0.81795324  0.66489397  0.07518097     0.98300
C473        C  0.81506452  0.66092675  0.92411788     0.90400
C474        C  0.86817635  0.82232510  0.07042648     0.96700
C475        C  0.84758439  0.59593733  0.21390065     0.03400
C476        C  0.83884600  0.90804371  0.20072824     0.03400
C477        C  0.01496866  0.65884828  0.29435806     0.03400
C478        C  0.67463537  0.84582231  0.28528899     0.03400
O479        O  0.68075955  0.93127286  0.55303037    -0.67100
O480        O  0.67689062  0.56574586  0.44073198    -0.68100
O481        O  0.67551693  0.56425339  0.55383184    -0.56700
O482        O  0.68375204  0.93252257  0.43981551    -0.65100
O483        O  0.94554509  0.93560128  0.43959019    -0.64600
O484        O  0.93511122  0.55516136  0.55819319    -0.55900
O485        O  0.93443650  0.55456056  0.44676636    -0.68400
O486        O  0.92651709  0.93062280  0.55148210    -0.67200
Cu487      Cu  0.68882280  0.99502544  0.49692423     1.04600
Cu488      Cu  0.92514099  0.99647858  0.49722646     1.04300
C489        C  0.97990736  0.91688363  0.57673860     0.99100
C490        C  0.98518914  0.58257562  0.42856099     0.98300
C491        C  0.98614506  0.58266531  0.57699563     0.90400
C492        C  0.00579250  0.91959141  0.42866590     0.96700
C493        C  0.84076596  0.59350795  0.78597892     0.03400
C494        C  0.83840881  0.90459031  0.78744424     0.03400
C495        C  0.67099758  0.65532605  0.70629309     0.03400
C496        C  0.01189243  0.84427278  0.71357005     0.03400
C497        C  0.66716204  0.72206224  0.70328106    -0.07400
C498        C  0.01083612  0.77743609  0.71026626    -0.09000
C499        C  0.73163400  0.86117426  0.73551959    -0.07400
C500        C  0.78045149  0.88083254  0.75809978    -0.09000
C501        C  0.89974348  0.88396217  0.76034855    -0.07400
C502        C  0.94964261  0.86587463  0.73846329    -0.09000
C503        C  0.78086446  0.61912678  0.75956460    -0.07400
C504        C  0.73172883  0.63784823  0.73634237    -0.09000
C505        C  0.89993400  0.61037295  0.75464550    -0.07400
C506        C  0.95008399  0.63098094  0.73486079    -0.09000
C507        C  0.83661295  0.97112465  0.78682643    -0.07400
C508        C  0.83451472  0.52708483  0.78940374    -0.09000
C509        C  0.97478992  0.87443406  0.62175621    -0.10600
C510        C  0.02178379  0.87370101  0.65991637    -0.25700
H511        H  0.92804785  0.85009055  0.62753754     0.18400
H512        H  0.71948273  0.89609555  0.64140223     0.19000
C513        C  0.62098154  0.62537312  0.61831855    -0.10600
C514        C  0.67400740  0.62713367  0.65172687    -0.25700
H515        H  0.92752223  0.64266691  0.62859704     0.18400
H516        H  0.71904472  0.60206224  0.64133095     0.19000
C517        C  0.67854272  0.87456318  0.33950726    -0.10600
C518        C  0.62689179  0.87501483  0.37363455    -0.25700
H519        H  0.93051791  0.89834196  0.34538988     0.18400
H520        H  0.58035698  0.85218991  0.36340320     0.19000
C521        C  0.02551191  0.63313842  0.34925531    -0.10600
C522        C  0.97549114  0.62414942  0.38365117    -0.25700
H523        H  0.72254055  0.60456534  0.35506558     0.18400
H524        H  0.92501002  0.63949596  0.37415215     0.19000
C525        C  0.00954982  0.72559543  0.29550805    -0.07400
C526        C  0.67287633  0.77909946  0.28922035    -0.09000
C527        C  0.73348794  0.86508330  0.25455627    -0.07400
C528        C  0.78042589  0.88529181  0.23007546    -0.09000
C529        C  0.94486911  0.86264354  0.25273119    -0.07400
C530        C  0.89847737  0.88282019  0.22740159    -0.09000
C531        C  0.78741222  0.62094790  0.23915892    -0.07400
C532        C  0.73764656  0.63982533  0.26050124    -0.09000
C533        C  0.95473382  0.63290999  0.26906882    -0.07400
C534        C  0.90611562  0.61305725  0.24626626    -0.09000
C535        C  0.84236612  0.52947778  0.21158082    -0.07400
C536        C  0.84141947  0.97471259  0.20349771    -0.09000
C537        C  0.85686083  0.62264303  0.15917400    -0.10600
C538        C  0.80732680  0.62773641  0.12294130    -0.25700
H539        H  0.90515977  0.64326814  0.15021429     0.18400
H540        H  0.75718953  0.61147736  0.13180022     0.19000
C541        C  0.88182283  0.86030991  0.11681080    -0.10600
C542        C  0.83221929  0.88764400  0.14370484    -0.25700
H543        H  0.93241938  0.85872345  0.13291868     0.18400
H544        H  0.78261177  0.89075154  0.12565296     0.19000
C545        C  0.85089480  0.62008384  0.84032729    -0.10600
C546        C  0.80304760  0.62313752  0.87736730    -0.25700
H547        H  0.89890109  0.64178572  0.84874314     0.18400
H548        H  0.75298750  0.60587750  0.86938224     0.19000
C549        C  0.88093557  0.85208361  0.87053402    -0.10600
C550        C  0.83243536  0.88211002  0.84408492    -0.25700
H551        H  0.93066282  0.84750396  0.85366623     0.18400
H552        H  0.78396940  0.88809864  0.86305302     0.19000
loop_ 
_geom_bond_atom_site_label_1 
_geom_bond_atom_site_label_2 
_geom_bond_distance 
_geom_bond_site_symmetry_2 
_ccdc_geom_bond_type 
O1           Cu9   2.001   1_556  S
O1           C11   1.275       .  A
O2           Cu9   2.004       .  S
O2           C12   1.279       .  A
O3           Cu9   2.016   1_556  S
O3           C13   1.280       .  A
O4           Cu9   2.015       .  S
O4           C14   1.277       .  A
O5          Cu10   2.020       .  S
O5           C14   1.281       .  A
O6          Cu10   2.009   1_556  S
O6           C13   1.276       .  A
O7          Cu10   1.996       .  S
O7           C12   1.274       .  A
O8          Cu10   2.005   1_556  S
O8           C11   1.279       .  A
Cu9         Cu10   2.376       .  S
C11          C89   1.471       .  S
C12          C78   1.469       .  S
C13          C86   1.477       .  S
C14          C81   1.482       .  S
C15          C71   1.473       .  S
C15          C74   1.464       .  S
C15          C75   1.474       .  S
C15          C77   1.509       .  S
C16          C68   1.469       .  S
C16          C70   1.476       .  S
C16          C76   1.479       .  S
C16          C82   1.522       .  S
C17          C65   1.477       .  S
C17          C73   1.467       .  S
C17         C256   1.471       .  S
C17          C61   1.517       .  S
C18          C66   1.480   1_655  S
C18          C67   1.471   1_655  S
C18         C437   1.469       .  S
C18          C57   1.514       .  S
O19         Cu27   2.001       .  S
O19         C397   1.275       .  A
O20        Cu119   2.032       .  S
O20         C398   1.282   1_455  A
O21        Cu119   1.987       .  S
O21         C399   1.275   1_455  A
O22         Cu27   1.997       .  S
O22         C400   1.274       .  A
O23         Cu28   2.000       .  S
O23          C32   1.275       .  A
O24        Cu120   2.011   1_545  S
O24          C31   1.277       .  A
O25        Cu120   2.015   1_545  S
O25          C30   1.278       .  A
O26         Cu28   2.010       .  S
O26          C29   1.280       .  A
Cu27        O112   2.009       .  S
Cu27        O113   2.002       .  S
Cu27       Cu396   2.377   1_455  S
Cu28        O116   1.995       .  S
Cu28        O117   2.010       .  S
Cu28       Cu211   2.375       .  S
C29         O203   1.275       .  A
C29          C49   1.473       .  S
C30         O204   1.277       .  A
C30          C62   1.474       .  S
C31         O205   1.278       .  A
C31         C237   1.475       .  S
C32         O206   1.280       .  A
C32         C242   1.472       .  S
C33          C43   1.473       .  S
C33          C45   1.466       .  S
C33          C48   1.474       .  S
C33          C85   1.517       .  S
C34          C40   1.470       .  S
C34          C41   1.473       .  S
C34          C47   1.478       .  S
C34          C90   1.511       .  S
C35          C37   1.474       .  S
C35          C44   1.472       .  S
C35         C414   1.469   1_455  S
C35          C54   1.516       .  S
C36          C38   1.478       .  S
C36          C42   1.471       .  S
C36         C223   1.471       .  S
C36          C50   1.512       .  S
C37         C406   1.211   1_455  T
C38         C221   1.212       .  T
C39         C404   1.473   1_455  S
C39          C40   1.208       .  T
C41          C42   1.208       .  T
C43          C44   1.208       .  T
C45          C46   1.205       .  T
C46         C219   1.468       .  S
C47         C140   1.213       .  T
C48         C139   1.211   1_545  T
C49          C50   1.343       .  D
C49          H51   1.088       .  S
C50         H236   1.090       .  S
H52         C418   1.091       .  S
C53         C399   1.480       .  S
C53          C54   1.352   1_655  D
C53         H423   1.087       .  S
C54          H56   1.090       .  S
H55         C237   1.087       .  S
C57          C58   1.342   1_655  D
C57         H427   1.090       .  S
C58         C400   1.472       .  S
C58          H60   1.086       .  S
H59         C241   1.090       .  S
C61          C62   1.349       .  D
C61         H247   1.089       .  S
C62          H64   1.087       .  S
H63         C429   1.089       .  S
C65         C250   1.212       .  T
C66         C433   1.214       .  T
C67          C68   1.207       .  T
C69         C202   1.479       .  S
C69          C70   1.211       .  T
C71          C72   1.208       .  T
C72         C385   1.470       .  S
C73          C74   1.204       .  T
C75         C168   1.211   1_545  T
C76         C167   1.214       .  T
C77          C78   1.342       .  D
C77          H79   1.090       .  S
C78          H80   1.087       .  S
C81          C82   1.347       .  D
C81          H83   1.086       .  S
C82          H84   1.090       .  S
C85          C86   1.345       .  D
C85          H87   1.089       .  S
C86          H88   1.086       .  S
C89          C90   1.344       .  D
C89          H91   1.086       .  S
C90          H92   1.090       .  S
O93        Cu101   1.989   1_556  S
O93         C103   1.273       .  A
O94        Cu101   1.991       .  S
O94         C104   1.276       .  A
O95        Cu101   2.018   1_556  S
O95         C105   1.281       .  A
O96        Cu101   2.023       .  S
O96         C106   1.279       .  A
O97        Cu102   1.989       .  S
O97         C106   1.276       .  A
O98        Cu102   1.989   1_556  S
O98         C105   1.274       .  A
O99        Cu102   2.005       .  S
O99         C104   1.277       .  A
O100       Cu102   2.008   1_556  S
O100        C103   1.280       .  A
Cu101      Cu102   2.376       .  S
C103        C181   1.470       .  S
C104        C170   1.468       .  S
C105        C178   1.471       .  S
C106        C173   1.474       .  S
C107        C163   1.474       .  S
C107        C166   1.472       .  S
C107        C167   1.478       .  S
C107        C169   1.515       .  S
C108        C160   1.477       .  S
C108        C162   1.471       .  S
C108        C168   1.474       .  S
C108        C174   1.514       .  S
C109        C157   1.477       .  S
C109        C348   1.470       .  S
C109        C165   1.474       .  S
C109        C153   1.511       .  S
C110        C158   1.483   1_655  S
C110        C159   1.478   1_655  S
C110        C529   1.466       .  S
C110        C149   1.517       .  S
O111       Cu119   2.021   1_565  S
O111        C489   1.282   1_455  A
O112        C490   1.280   1_455  A
O113        C491   1.278   1_455  A
O114       Cu119   1.986   1_565  S
O114        C492   1.272       .  A
O115       Cu120   2.017       .  S
O115        C124   1.278       .  A
O116        C123   1.278       .  A
O117        C122   1.277       .  A
O118       Cu120   2.019       .  S
O118        C121   1.278       .  A
Cu119      Cu488   2.372   1_445  S
Cu120      Cu303   2.374       .  S
C121        O295   1.279       .  A
C121        C141   1.481       .  S
C122        O296   1.278       .  A
C122        C154   1.473       .  S
C123        O297   1.278       .  A
C123        C329   1.478       .  S
C124        O298   1.278       .  A
C124        C334   1.477       .  S
C125        C135   1.475       .  S
C125        C137   1.469       .  S
C125        C140   1.476       .  S
C125        C177   1.516       .  S
C126        C132   1.466       .  S
C126        C133   1.480       .  S
C126        C139   1.474       .  S
C126        C182   1.511       .  S
C127        C129   1.483       .  S
C127        C136   1.471       .  S
C127        C506   1.475   1_455  S
C127        C146   1.513       .  S
C128        C130   1.482       .  S
C128        C315   1.469       .  S
C128        C134   1.477       .  S
C128        C142   1.518       .  S
C129        C498   1.216       .  T
C130        C313   1.215       .  T
C131        C496   1.467       .  S
C131        C132   1.207       .  T
C133        C134   1.211       .  T
C135        C136   1.208       .  T
C137        C138   1.208       .  T
C138        C311   1.470       .  S
C141        C142   1.347       .  D
C141        H143   1.087       .  S
C142        H328   1.090       .  S
H144        C510   1.090       .  S
C145        C491   1.470       .  S
C145        C146   1.345   1_655  D
C145        H515   1.086       .  S
C146        H148   1.089       .  S
H147        C329   1.086       .  S
C149        C150   1.339   1_655  D
C149        H519   1.090       .  S
C150        C492   1.475       .  S
C150        H152   1.087       .  S
H151        C333   1.089       .  S
C153        C154   1.345       .  D
C153        H339   1.090       .  S
C154        H156   1.087       .  S
H155        C521   1.090       .  S
C157        C342   1.212       .  T
C158        C525   1.215       .  T
C159        C160   1.211       .  T
C161        C294   1.472       .  S
C161        C162   1.207       .  T
C163        C164   1.207       .  T
C164        C477   1.468       .  S
C165        C166   1.210       .  T
C169        C170   1.349       .  D
C169        H171   1.088       .  S
C170        H172   1.085       .  S
C173        C174   1.349       .  D
C173        H175   1.086       .  S
C174        H176   1.090       .  S
C177        C178   1.344       .  D
C177        H179   1.088       .  S
C178        H180   1.086       .  S
C181        C182   1.342       .  D
C181        H183   1.085       .  S
C182        H184   1.088       .  S
O185       Cu193   2.008       .  S
O185        C195   1.276       .  A
O186       Cu193   2.014   1_554  S
O186        C196   1.280       .  A
O187       Cu193   2.014       .  S
O187        C197   1.280       .  A
O188       Cu193   2.009   1_554  S
O188        C198   1.276       .  A
O189       Cu194   2.016   1_554  S
O189        C198   1.280       .  A
O190       Cu194   2.006       .  S
O190        C197   1.276       .  A
O191       Cu194   2.005   1_554  S
O191        C196   1.275       .  A
O192       Cu194   2.013       .  S
O192        C195   1.280       .  A
Cu193      Cu194   2.375       .  S
C195        C273   1.476       .  S
C196        C262   1.475       .  S
C197        C270   1.476       .  S
C198        C265   1.478       .  S
C199        C255   1.472       .  S
C199        C258   1.465       .  S
C199        C259   1.475       .  S
C199        C261   1.514       .  S
C200        C252   1.468       .  S
C200        C254   1.474       .  S
C200        C260   1.477       .  S
C200        C266   1.517       .  S
C201        C249   1.480       .  S
C201        C440   1.473       .  S
C201        C257   1.468       .  S
C201        C245   1.513       .  S
C202        C250   1.476       .  S
C202        C251   1.467       .  S
C202        C241   1.516       .  S
O203       Cu211   2.000       .  S
O204       Cu303   2.005   1_545  S
O205       Cu303   2.005   1_545  S
O206       Cu211   2.011       .  S
O207       Cu212   2.023       .  S
O207        C216   1.279       .  A
O208       Cu304   2.009   1_545  S
O208        C215   1.277       .  A
O209       Cu304   2.009   1_545  S
O209        C214   1.277       .  A
O210       Cu212   2.016       .  S
O210        C213   1.277       .  A
Cu211       O296   1.996       .  S
Cu211       O297   2.022       .  S
Cu212       O300   2.023       .  S
Cu212       O301   2.017       .  S
Cu212      Cu395   2.374       .  S
C213        O387   1.278       .  A
C213        C233   1.475       .  S
C214        O388   1.277       .  A
C214        C246   1.471       .  S
C215        O389   1.278       .  A
C215        C421   1.473       .  S
C216        O390   1.278       .  A
C216        C426   1.480       .  S
C217        C227   1.474       .  S
C217        C229   1.463       .  S
C217        C232   1.475       .  S
C217        C269   1.516       .  S
C218        C224   1.469       .  S
C218        C225   1.473       .  S
C218        C231   1.474       .  S
C218        C274   1.516       .  S
C219        C221   1.477       .  S
C219        C228   1.472       .  S
C219        C238   1.515       .  S
C220        C222   1.479       .  S
C220        C407   1.468       .  S
C220        C226   1.474       .  S
C220        C234   1.514       .  S
C222        C405   1.213       .  T
C223        C224   1.207       .  T
C225        C226   1.209       .  T
C227        C228   1.209       .  T
C229        C230   1.203       .  T
C230        C403   1.465       .  S
C231        C324   1.210       .  T
C232        C323   1.211   1_545  T
C233        C234   1.346       .  D
C233        H235   1.087       .  S
C234        H420   1.090       .  S
C237        C238   1.346       .  D
C238        H240   1.089       .  S
H239        C421   1.086       .  S
C241        C242   1.345       .  D
C242        H244   1.086       .  S
H243        C425   1.089       .  S
C245        C246   1.346       .  D
C245        H431   1.089       .  S
C246        H248   1.087       .  S
C249        C434   1.214       .  T
C251        C252   1.207       .  T
C253        C386   1.474       .  S
C253        C254   1.209       .  T
C255        C256   1.208       .  T
C257        C258   1.205       .  T
C259        C352   1.211   1_545  T
C260        C351   1.213       .  T
C261        C262   1.343       .  D
C261        H263   1.091       .  S
C262        H264   1.087       .  S
C265        C266   1.345       .  D
C265        H267   1.087       .  S
C266        H268   1.090       .  S
C269        C270   1.344       .  D
C269        H271   1.090       .  S
C270        H272   1.086       .  S
C273        C274   1.345       .  D
C273        H275   1.086       .  S
C274        H276   1.090       .  S
O277       Cu285   1.997       .  S
O277        C287   1.275       .  A
O278       Cu285   1.993   1_554  S
O278        C288   1.277       .  A
O279       Cu285   2.011       .  S
O279        C289   1.279       .  A
O280       Cu285   2.013   1_554  S
O280        C290   1.278       .  A
O281       Cu286   2.001   1_554  S
O281        C290   1.277       .  A
O282       Cu286   1.998       .  S
O282        C289   1.275       .  A
O283       Cu286   2.007   1_554  S
O283        C288   1.277       .  A
O284       Cu286   2.006       .  S
O284        C287   1.280       .  A
Cu285      Cu286   2.375       .  S
C287        C365   1.471       .  S
C288        C354   1.471       .  S
C289        C362   1.472       .  S
C290        C357   1.475       .  S
C291        C347   1.474       .  S
C291        C350   1.473       .  S
C291        C351   1.477       .  S
C291        C353   1.513       .  S
C292        C344   1.473       .  S
C292        C346   1.473       .  S
C292        C352   1.474       .  S
C292        C358   1.519       .  S
C293        C341   1.480       .  S
C293        C532   1.470       .  S
C293        C349   1.475       .  S
C293        C337   1.517       .  S
C294        C342   1.477       .  S
C294        C343   1.475       .  S
C294        C333   1.518       .  S
O295       Cu303   2.007       .  S
O298       Cu303   2.008       .  S
O299       Cu304   2.016       .  S
O299        C308   1.278       .  A
O300        C307   1.279       .  A
O301        C306   1.278       .  A
O302       Cu304   2.016       .  S
O302        C305   1.277       .  A
Cu304      Cu487   2.375       .  S
C305        O479   1.279       .  A
C305        C325   1.477       .  S
C306        O480   1.278       .  A
C306        C338   1.477       .  S
C307        O481   1.278       .  A
C307        C513   1.480       .  S
C308        O482   1.279       .  A
C308        C518   1.477       .  S
C309        C319   1.477       .  S
C309        C321   1.470       .  S
C309        C324   1.473       .  S
C309        C361   1.518       .  S
C310        C316   1.468       .  S
C310        C317   1.479       .  S
C310        C323   1.474       .  S
C310        C366   1.513       .  S
C311        C313   1.482       .  S
C311        C320   1.473       .  S
C311        C330   1.514       .  S
C312        C314   1.481       .  S
C312        C499   1.470       .  S
C312        C318   1.477       .  S
C312        C326   1.515       .  S
C314        C497   1.215       .  T
C315        C316   1.207       .  T
C317        C318   1.211       .  T
C319        C320   1.209       .  T
C321        C322   1.208       .  T
C322        C495   1.473       .  S
C325        C326   1.347       .  D
C325        H327   1.085       .  S
C326        H512   1.088       .  S
C329        C330   1.347       .  D
C330        H332   1.089       .  S
H331        C513   1.087       .  S
C333        C334   1.349       .  D
C334        H336   1.087       .  S
H335        C517   1.089       .  S
C337        C338   1.348       .  D
C337        H523   1.089       .  S
C338        H340   1.087       .  S
C341        C526   1.214       .  T
C343        C344   1.210       .  T
C345        C478   1.470       .  S
C345        C346   1.207       .  T
C347        C348   1.208       .  T
C349        C350   1.209       .  T
C353        C354   1.348       .  D
C353        H355   1.089       .  S
C354        H356   1.086       .  S
C357        C358   1.350       .  D
C357        H359   1.086       .  S
C358        H360   1.089       .  S
C361        C362   1.347       .  D
C361        H363   1.088       .  S
C362        H364   1.084       .  S
C365        C366   1.344       .  D
C365        H367   1.086       .  S
C366        H368   1.089       .  S
O369       Cu377   2.004       .  S
O369        C379   1.276       .  A
O370       Cu377   2.006   1_554  S
O370        C380   1.279       .  A
O371       Cu377   2.010       .  S
O371        C381   1.279       .  A
O372       Cu377   1.993   1_554  S
O372        C382   1.275       .  A
O373       Cu378   2.005       .  S
O373        C382   1.279       .  A
O374       Cu378   2.004   1_556  S
O374        C381   1.276       .  A
O375       Cu378   2.013       .  S
O375        C380   1.277       .  A
O376       Cu378   2.004   1_556  S
O376        C379   1.279       .  A
Cu377      Cu378   2.376   1_556  S
C379        C457   1.470       .  S
C380        C446   1.475       .  S
C381        C454   1.475       .  S
C382        C449   1.467       .  S
C383        C439   1.475       .  S
C383        C442   1.475       .  S
C383        C443   1.481       .  S
C383        C445   1.516       .  S
C384        C436   1.467       .  S
C384        C438   1.475       .  S
C384        C444   1.476       .  S
C384        C450   1.514       .  S
C385        C433   1.482       .  S
C385        C441   1.477   1_455  S
C385        C429   1.517       .  S
C386        C434   1.479       .  S
C386        C435   1.469       .  S
C386        C425   1.519       .  S
O387       Cu395   2.000       .  S
O388       Cu487   1.999   1_545  S
O389       Cu487   2.005   1_545  S
O390       Cu395   2.004       .  S
O391       Cu396   2.015       .  S
O391        C400   1.280   1_655  A
O392       Cu488   2.034   1_545  S
O392        C399   1.281       .  A
O393       Cu488   1.989   1_545  S
O393        C398   1.273       .  A
O394       Cu396   2.000       .  S
O394        C397   1.278   1_655  A
Cu395       O480   2.004       .  S
Cu395       O481   2.007       .  S
Cu396       O484   2.005       .  S
Cu396       O485   1.994       .  S
C397        C417   1.468       .  S
C398        C430   1.473       .  S
C401        C411   1.475       .  S
C401        C413   1.466       .  S
C401        C416   1.474       .  S
C401        C453   1.518       .  S
C402        C408   1.467       .  S
C402        C409   1.470       .  S
C402        C415   1.478       .  S
C402        C458   1.512       .  S
C403        C405   1.479       .  S
C403        C412   1.471       .  S
C403        C422   1.515       .  S
C404        C406   1.475       .  S
C404        C410   1.467       .  S
C404        C418   1.509       .  S
C407        C408   1.206       .  T
C409        C410   1.206       .  T
C411        C412   1.209       .  T
C413        C414   1.206       .  T
C415        C508   1.213       .  T
C416        C507   1.211   1_545  T
C417        C418   1.343   1_455  D
C417        H419   1.088       .  S
C421        C422   1.346       .  D
C422        H424   1.089       .  S
C425        C426   1.349       .  D
C426        H428   1.087       .  S
C429        C430   1.342   1_455  D
C430        H432   1.087       .  S
C435        C436   1.207       .  T
C437        C438   1.208       .  T
C439        C440   1.210       .  T
C441        C442   1.211       .  T
C443        C536   1.214   1_545  T
C444        C535   1.212       .  T
C445        C446   1.347       .  D
C445        H447   1.090       .  S
C446        H448   1.086       .  S
C449        C450   1.345       .  D
C449        H451   1.085       .  S
C450        H452   1.088       .  S
C453        C454   1.347       .  D
C453        H455   1.088       .  S
C454        H456   1.085       .  S
C457        C458   1.344       .  D
C457        H459   1.086       .  S
C458        H460   1.090       .  S
O461       Cu469   1.995       .  S
O461        C471   1.275       .  A
O462       Cu469   1.998   1_554  S
O462        C472   1.277       .  A
O463       Cu469   2.001       .  S
O463        C473   1.279       .  A
O464       Cu469   2.000   1_554  S
O464        C474   1.276       .  A
O465       Cu470   2.010   1_554  S
O465        C474   1.279       .  A
O466       Cu470   2.005       .  S
O466        C473   1.275       .  A
O467       Cu470   2.017   1_554  S
O467        C472   1.278       .  A
O468       Cu470   2.022       .  S
O468        C471   1.281       .  A
Cu469      Cu470   2.376       .  S
C471        C549   1.474       .  S
C472        C538   1.474       .  S
C473        C546   1.471       .  S
C474        C541   1.472       .  S
C475        C531   1.471       .  S
C475        C534   1.472       .  S
C475        C535   1.477       .  S
C475        C537   1.515       .  S
C476        C528   1.472       .  S
C476        C530   1.471       .  S
C476        C536   1.479       .  S
C476        C542   1.519       .  S
C477        C525   1.482       .  S
C477        C533   1.475   1_455  S
C477        C521   1.511       .  S
C478        C526   1.481       .  S
C478        C527   1.473       .  S
C478        C517   1.517       .  S
O479       Cu487   2.003       .  S
O482       Cu487   2.008       .  S
O483       Cu488   2.034       .  S
O483        C492   1.284   1_655  A
O484        C491   1.276       .  A
O485        C490   1.274       .  A
O486       Cu488   1.997       .  S
O486        C489   1.273       .  A
C489        C509   1.476       .  S
C490        C522   1.470       .  S
C493        C503   1.476       .  S
C493        C505   1.472       .  S
C493        C508   1.478       .  S
C493        C545   1.511       .  S
C494        C500   1.468       .  S
C494        C501   1.478       .  S
C494        C507   1.474       .  S
C494        C550   1.519       .  S
C495        C497   1.481       .  S
C495        C504   1.475       .  S
C495        C514   1.520       .  S
C496        C498   1.483       .  S
C496        C502   1.475   1_455  S
C496        C510   1.516       .  S
C499        C500   1.208       .  T
C501        C502   1.210       .  T
C503        C504   1.210       .  T
C505        C506   1.209       .  T
C509        C510   1.341   1_655  D
C509        H511   1.087       .  S
C513        C514   1.350       .  D
C514        H516   1.089       .  S
C517        C518   1.347       .  D
C518        H520   1.087       .  S
C521        C522   1.341   1_455  D
C522        H524   1.087       .  S
C527        C528   1.209       .  T
C529        C530   1.206       .  T
C531        C532   1.208       .  T
C533        C534   1.209       .  T
C537        C538   1.347       .  D
C537        H539   1.090       .  S
C538        H540   1.086       .  S
C541        C542   1.348       .  D
C541        H543   1.086       .  S
C542        H544   1.088       .  S
C545        C546   1.343       .  D
C545        H547   1.091       .  S
C546        H548   1.087       .  S
C549        C550   1.345       .  D
C549        H551   1.086       .  S
C550        H552   1.089       .  S
