geometry optimzed in LAMMPS
_audit_creation_date              2020-12-01 
_audit_creation_method            'lammps2cif' 
_symmetry_space_group_name_H-M    'P1' 
_symmetry_Int_Tables_number       1 
_symmetry_cell_setting            triclinic 
loop_ 
_symmetry_equiv_pos_as_xyz 
  x,y,z 
_cell_length_a                    45.20833771 
_cell_length_b                    45.79419916774177 
_cell_length_c                    30.933258252547855 
_cell_angle_alpha                 84.36727357756318 
_cell_angle_beta                  91.80042008675815 
_cell_angle_gamma                 125.1689837856841 
loop_ 
_atom_site_label 
_atom_site_type_symbol 
_atom_site_fract_x 
_atom_site_fract_y 
_atom_site_fract_z 
_atom_site_charge 
N1          N  0.51189815  0.86378433  0.44657530    -0.03000
C2          C  0.50583676  0.83097947  0.44733447    -0.00400
C3          C  0.48777869  0.81361611  0.98229505    -0.23300
C4          C  0.47995068  0.83350683  0.00316583    -0.23500
C5          C  0.49804453  0.86690220  0.97996101    -0.00500
H6          H  0.48096898  0.78733528  0.99418211     0.13200
H7          H  0.46540348  0.82559190  0.03402118     0.13300
N8          N  0.29934065  0.92587607  0.46351578    -0.03000
C9          C  0.26266180  0.90583716  0.46778319    -0.00400
C10         C  0.24772227  0.91190139  0.43133659    -0.23300
C11         C  0.27587525  0.93597553  0.40303836    -0.23500
C12         C  0.30685723  0.94367991  0.42340467    -0.00500
H13         H  0.21923162  0.89786115  0.42454556     0.13200
H14         H  0.27382567  0.94475138  0.36998949     0.13300
N15         N  0.59673404  0.10953299  0.23309946    -0.05700
N16         N  0.61531839  0.13087575  0.26364276    -0.57800
N17         N  0.59960704  0.08128020  0.13781734    -0.05400
N18         N  0.62054834  0.08337520  0.10691014    -0.59900
N19         N  0.59883286  0.10966890  0.13317340    -0.05000
N20         N  0.61853567  0.13124740  0.09874793    -0.57800
N21         N  0.59757838  0.08112235  0.23780198    -0.04600
N22         N  0.61684786  0.08271121  0.27167791    -0.60300
C23         C  0.62761735  0.11383360  0.28768954     0.96500
C24         C  0.63182591  0.11453311  0.08246741     0.96300
N25         N  0.50167312  0.97773437  0.14938044    -0.05900
N26         N  0.48786392  0.95710044  0.11736841    -0.58400
N27         N  0.53839025  0.99706151  0.24720544    -0.04000
N28         N  0.55076916  0.98551166  0.27886069    -0.59600
N29         N  0.50277576  0.97713506  0.24892717    -0.05900
N30         N  0.49032318  0.95147352  0.28142675    -0.58600
N31         N  0.53730060  0.99769842  0.14664921    -0.03600
N32         N  0.54835792  0.99063675  0.11256851    -0.59700
Mn33       Mn  0.56926512  0.03906312  0.19243850     1.18400
C34         C  0.51708507  0.96527673  0.09458652     0.98600
C35         C  0.52048464  0.95709036  0.30021682     0.99200
N36         N  0.53909704  0.12285394  0.12465324    -0.05900
N37         N  0.55323037  0.14389433  0.08825599    -0.62200
N38         N  0.50179221  0.10609633  0.22318921    -0.04700
N39         N  0.48873957  0.11718280  0.24996595    -0.62900
N40         N  0.53732213  0.12589944  0.22348554    -0.05400
N41         N  0.54920343  0.15118071  0.25003070    -0.62500
N42         N  0.50355061  0.10282225  0.12376655    -0.04300
N43         N  0.49279260  0.11021177  0.08656417    -0.63200
Mn44       Mn  0.56878364  0.11801852  0.17887756     1.10700
C45         C  0.52427913  0.13580894  0.06460126     0.99800
C46         C  0.51862697  0.14539630  0.26655038     0.99900
N47         N  0.44438613  0.99533599  0.24369755    -0.05400
N48         N  0.42850537  0.97822234  0.28185885    -0.60800
N49         N  0.44158555  0.01923100  0.13717504    -0.04700
N50         N  0.42021132  0.01592908  0.10497427    -0.57500
N51         N  0.44097609  0.99012439  0.14431545    -0.06100
N52         N  0.41935834  0.96655493  0.11694880    -0.60400
N53         N  0.44431257  0.02407551  0.23601885    -0.05000
N54         N  0.42880012  0.02728467  0.26864692    -0.57600
Mn55       Mn  0.47153735  0.98385045  0.19718286     1.20200
Mn56       Mn  0.47182572  0.06313854  0.17953627     1.10100
Cl57       Cl  0.52037909  0.05099367  0.18715693    -0.85500
C58         C  0.41906547  0.99868049  0.29704301     0.96800
C59         C  0.40655624  0.98293650  0.09243082     0.96600
N60         N  0.52140372  0.23464619  0.38696323    -0.03000
C61         C  0.52905603  0.26824392  0.37974278    -0.00400
C62         C  0.55402862  0.29012987  0.40942067    -0.23300
C63         C  0.56408543  0.26961927  0.93655281    -0.23500
C64         C  0.54057776  0.23585959  0.42222385    -0.00500
H65         H  0.56689010  0.31727293  0.91347055     0.13200
H66         H  0.58064420  0.27807575  0.96491323     0.13300
N67         N  0.74608036  0.18978250  0.95191130    -0.03000
C68         C  0.78120306  0.21389884  0.96183831    -0.00400
C69         C  0.80251624  0.23002050  0.41795506    -0.23300
C70         C  0.77996246  0.21247733  0.38457814    -0.23500
C71         C  0.74570653  0.18859548  0.40309258    -0.00500
H72         H  0.83102063  0.25163306  0.41450918     0.13200
H73         H  0.78748744  0.21750886  0.35040061     0.13300
N74         N  0.05369367  0.60573604  0.41346959    -0.05700
N75         N  0.05996626  0.63070865  0.43808065    -0.57800
N76         N  0.07592997  0.59429468  0.31705718    -0.05400
N77         N  0.09353937  0.60497026  0.27929791    -0.59900
N78         N  0.04897449  0.59770492  0.31487802    -0.05000
N79         N  0.04771020  0.61075081  0.27549454    -0.60800
N80         N  0.08051375  0.60196183  0.41580987    -0.04600
N81         N  0.10527266  0.62409960  0.44235204    -0.60300
C82         C  0.09213885  0.64187435  0.45617719     0.96500
C83         C  0.07557197  0.61501164  0.25357988     0.96300
N84         N  0.06170763  0.49660006  0.33613579    -0.05900
N85         N  0.06766120  0.48174849  0.30589147    -0.58400
N86         N  0.08773425  0.53626566  0.42959399    -0.04000
N87         N  0.11389906  0.54818638  0.45776421    -0.59600
N88         N  0.06494587  0.50110701  0.43606255    -0.05900
N89         N  0.07519378  0.48849573  0.46904442    -0.58600
N90         N  0.08430332  0.53175400  0.33018031    -0.03600
N91         N  0.10572826  0.54148954  0.29570644    -0.59700
Mn92       Mn  0.08321187  0.56690050  0.37351721     1.18400
C93         C  0.09520636  0.51015503  0.28061222     0.98600
C94         C  0.10575837  0.51822491  0.48243302     0.99200
N95         N  0.96540912  0.54642831  0.32171478    -0.05900
N96         N  0.95887402  0.55866835  0.28476014    -0.62200
N97         N  0.94390600  0.51622405  0.42753554    -0.04700
N98         N  0.91916753  0.50703674  0.45777630    -0.62900
N99         N  0.96664751  0.55142172  0.42122798    -0.05400
N100        N  0.95750105  0.56676251  0.44687505    -0.62500
N101        N  0.94245616  0.51136520  0.32815438    -0.04300
N102        N  0.91974680  0.49904815  0.29592045    -0.63200
Mn103      Mn  0.00878957  0.57643425  0.36807251     1.10700
C104        C  0.93032377  0.52878385  0.26884107     0.99800
C105        C  0.92788923  0.53873037  0.46982803     0.99900
N106        N  0.97878219  0.44753166  0.44359704    -0.05400
N107        N  0.97469196  0.42664963  0.47896469    -0.60800
N108        N  0.94992607  0.44743479  0.34218940    -0.04700
N109        N  0.92818108  0.42992775  0.31068073    -0.57500
N110        N  0.97676918  0.44378836  0.34419015    -0.06100
N111        N  0.97371937  0.42365672  0.31417625    -0.60400
N112        N  0.95211804  0.45150172  0.44149524    -0.05000
N113        N  0.92962182  0.43359423  0.47530878    -0.57600
Mn114      Mn  0.02050820  0.47115930  0.39047862     1.20200
Mn115      Mn  0.94603365  0.48084369  0.38523846     1.10100
Cl116      Cl  0.01463306  0.52383549  0.37996857    -0.85500
C117        C  0.94397943  0.41827955  0.49863670     0.96800
C118        C  0.94333184  0.41522897  0.29339320     0.96600
N119        N  0.19448691  0.51386276  0.11390461    -0.03000
C120        C  0.22673987  0.51869372  0.10684104    -0.00400
C121        C  0.24217033  0.51907779  0.14634862    -0.23300
C122        C  0.21871953  0.51421565  0.17836204    -0.23500
C123        C  0.18963808  0.51113650  0.15768258    -0.00500
H124        H  0.26739970  0.52179406  0.15148825     0.13200
H125        H  0.22271474  0.51352685  0.21302879     0.13300
N126        N  0.86404519  0.30514241  0.13274256    -0.03000
C127        C  0.83576014  0.27138260  0.12641536    -0.00400
C128        C  0.82080686  0.25110976  0.16576066    -0.23300
C129        C  0.84066271  0.27342839  0.19750897    -0.23500
C130        C  0.86688450  0.30641712  0.17624267    -0.00500
H131        H  0.79778357  0.22334587  0.17078563     0.13200
H132        H  0.83575859  0.26671401  0.23226577     0.13300
N133        N  0.84014851  0.54173180  0.09467685    -0.03000
C134        C  0.81415365  0.54815069  0.08871489    -0.00400
C135        C  0.79866321  0.54483321  0.12841311    -0.23300
C136        C  0.81531447  0.53633706  0.15968636    -0.23500
C137        C  0.84066813  0.53478046  0.13845876    -0.00500
H138        H  0.77728810  0.54814247  0.13405246     0.13200
H139        H  0.81019081  0.53263486  0.19442238     0.13300
N140        N  0.15354945  0.74473454  0.58268156    -0.03000
C141        C  0.17065498  0.78070289  0.58309116    -0.00400
C142        C  0.17826734  0.78667452  0.12565028    -0.23300
C143        C  0.16001869  0.75553425  0.15263790    -0.23500
C144        C  0.14818171  0.72815531  0.12667135    -0.00500
H145        H  0.19157045  0.81356747  0.13515819     0.13200
H146        H  0.15523799  0.75295795  0.18731388     0.13300
N147        N  0.47516953  0.47517413  0.12155032    -0.05700
N148        N  0.45443811  0.45303682  0.09236714    -0.57800
N149        N  0.51276833  0.48435454  0.21941504    -0.05400
N150        N  0.51764421  0.46756274  0.25298626    -0.59900
N151        N  0.48004463  0.47693708  0.22124525    -0.05000
N152        N  0.46187810  0.45459811  0.25601242    -0.57800
N153        N  0.50774997  0.48211457  0.11978169    -0.04600
N154        N  0.50982702  0.46508329  0.08928267    -0.60300
C155        C  0.47650693  0.44712454  0.07221626     0.96500
C156        C  0.48581440  0.44924160  0.27574700     0.96300
N157        N  0.60771793  0.58899503  0.20183624    -0.05900
N158        N  0.63039580  0.60537336  0.23322805    -0.58400
N159        N  0.58849091  0.55082237  0.10862698    -0.04000
N160        N  0.60248224  0.54095679  0.08150669    -0.59600
N161        N  0.60368812  0.58558487  0.10190337    -0.05900
N162        N  0.62850310  0.59994723  0.06999008    -0.58600
N163        N  0.59205671  0.55415927  0.20825939    -0.03600
N164        N  0.60366419  0.54617468  0.24416584    -0.59700
Mn165      Mn  0.55056760  0.51729672  0.16406029     1.18400
C166        C  0.62753558  0.57833928  0.25957475     0.98600
C167        C  0.62731205  0.57169853  0.05726909     0.99200
N168        N  0.45043154  0.52523854  0.21702967    -0.05900
N169        N  0.42838095  0.51061672  0.25183177    -0.62200
N170        N  0.46059168  0.55808146  0.11172219    -0.04700
N171        N  0.44603751  0.56654470  0.07974678    -0.62900
N172        N  0.44472754  0.52317518  0.11705757    -0.05400
N173        N  0.41862410  0.50712251  0.08894138    -0.62500
N174        N  0.46548100  0.55999137  0.21137477    -0.04300
N175        N  0.45378353  0.56955847  0.24200116    -0.63200
Mn176      Mn  0.46141524  0.49907156  0.16933157     1.10700
C177        C  0.43084064  0.53863527  0.26739859     0.99800
C178        C  0.41992715  0.53458927  0.06574520     0.99900
N179        N  0.57276244  0.63475569  0.09564037    -0.05400
N180        N  0.59096433  0.65850821  0.06173464    -0.60800
N181        N  0.54556896  0.62873320  0.19836196    -0.04700
N182        N  0.54307019  0.64385488  0.23080332    -0.57500
N183        N  0.57823078  0.63613715  0.19546354    -0.06100
N184        N  0.59868026  0.65657559  0.22602435    -0.60400
N185        N  0.54034067  0.62802681  0.09906228    -0.05000
N186        N  0.53594307  0.64685068  0.06767309    -0.57600
Mn187      Mn  0.59177841  0.61241007  0.14788988     1.20200
Mn188      Mn  0.50271352  0.59423843  0.15501086     1.10100
Cl189      Cl  0.52660893  0.55575309  0.15866163    -0.85500
C190        C  0.56756158  0.66573725  0.04434960     0.96800
C191        C  0.57626993  0.66100020  0.24793506     0.96600
N192        N  0.44979057  0.34073879  0.41560329    -0.03000
C193        C  0.44008156  0.30694295  0.41095929    -0.00400
C194        C  0.41981474  0.28436764  0.44753558    -0.23300
C195        C  0.41550560  0.30332582  0.98138211    -0.23500
C196        C  0.43571077  0.33903404  0.45469042    -0.00500
H197        H  0.41219933  0.25607222  0.96673010     0.13200
H198        H  0.40466699  0.29572606  0.01443409     0.13300
N199        N  0.32121700  0.51908784  0.43257074    -0.03000
C200        C  0.28917110  0.51460768  0.44025961    -0.00400
C201        C  0.27280316  0.51310168  0.40112623    -0.23300
C202        C  0.29535911  0.51700326  0.36875099    -0.23500
C203        C  0.32493515  0.52067236  0.38871281    -0.00500
H204        H  0.24785148  0.51097849  0.39627604     0.13200
H205        H  0.29100805  0.51782736  0.33417831     0.13300
N206        N  0.72471215  0.58250001  0.43443918    -0.03000
C207        C  0.75309045  0.57959137  0.43997086    -0.00400
C208        C  0.77115299  0.58751424  0.40066474    -0.23300
C209        C  0.75374920  0.59555197  0.36995354    -0.23500
C210        C  0.72535481  0.59212720  0.39117892    -0.00500
H211        H  0.79461816  0.58745675  0.39494971     0.13200
H212        H  0.76004430  0.60155672  0.33538169     0.13300
N213        N  0.59816345  0.76509989  0.39796239    -0.03000
C214        C  0.60364447  0.79769558  0.39650024    -0.00400
C215        C  0.62733775  0.82035748  0.36235281    -0.23300
C216        C  0.63587588  0.80100489  0.34137072    -0.23500
C217        C  0.61722434  0.76713183  0.36343666    -0.00500
H218        H  0.63390375  0.84656042  0.35052075     0.13200
H219        H  0.65031521  0.80934694  0.31037336     0.13300
C220        C  0.40030817  0.56179996  0.30331676    -0.20900
C221        C  0.40664590  0.53519757  0.30243191    -0.08900
C222        C  0.38868619  0.50533521  0.33407345     0.29900
C223        C  0.36396342  0.50176117  0.36457988    -0.20900
C224        C  0.35639152  0.52759208  0.36365557    -0.08900
C225        C  0.37522360  0.55786112  0.33304890     0.30000
F226        F  0.36836871  0.58318022  0.33096862    -0.19400
H227        H  0.41368546  0.58513031  0.27966167     0.18300
H228        H  0.34944158  0.47799504  0.38750980     0.18300
F229        F  0.39455031  0.47935648  0.33511115    -0.19400
C230        C  0.33455337  0.49725186  0.00098617    -0.20900
C231        C  0.34587629  0.52537552  0.96816686    -0.08900
C232        C  0.38143049  0.55221472  0.46500114     0.29900
C233        C  0.40544339  0.55890757  0.99920926    -0.20900
C234        C  0.39437220  0.53059501  0.03181512    -0.08900
C235        C  0.35862770  0.49962501  0.03245054     0.30000
F236        F  0.34658653  0.47225500  0.06426829    -0.19400
H237        H  0.30699225  0.47345560  0.00206743     0.18300
H238        H  0.43273373  0.58315239  0.99829830     0.18300
F239        F  0.39287944  0.58065990  0.43503427    -0.19400
C240        C  0.57135758  0.70815083  0.33787699    -0.20900
C241        C  0.60802111  0.73553430  0.34230141    -0.08900
C242        C  0.63445705  0.73563306  0.31948287     0.29900
C243        C  0.62406389  0.70987897  0.29052055    -0.20900
C244        C  0.58723035  0.68428704  0.28340977    -0.08900
C245        C  0.56092435  0.68287491  0.30850190     0.30000
F246        F  0.52503159  0.65816422  0.30330155    -0.19400
H247        H  0.55054983  0.70790282  0.35471660     0.18300
H248        H  0.64479058  0.71122474  0.27193010     0.18300
F249        F  0.67015636  0.76162442  0.32365022    -0.19400
C250        C  0.60939535  0.71075723  0.98358588    -0.20900
C251        C  0.57637059  0.69318875  0.00697286    -0.08900
C252        C  0.55204321  0.70218498  0.99412255     0.29900
C253        C  0.56032111  0.72734305  0.95822092    -0.20900
C254        C  0.58890982  0.74002168  0.43623736    -0.08900
C255        C  0.61577829  0.73698312  0.45572094     0.30000
F256        F  0.65069601  0.75939165  0.44090755    -0.19400
H257        H  0.62888433  0.70485833  0.99274353     0.18300
H258        H  0.54056823  0.73263052  0.94881844     0.18300
F259        F  0.51999997  0.68655954  0.01599579    -0.19400
C260        C  0.68161556  0.61716887  0.30407774    -0.20900
C261        C  0.64941239  0.58344698  0.29875964    -0.08900
C262        C  0.63960092  0.55442381  0.32992216     0.29900
C263        C  0.66282383  0.55856107  0.36364138    -0.20900
C264        C  0.69637501  0.59146851  0.36654574    -0.08900
C265        C  0.70510803  0.62108247  0.33731274     0.30000
F266        F  0.73746533  0.65324830  0.33928241    -0.19400
H267        H  0.68970479  0.64007496  0.28095214     0.18300
H268        H  0.65587810  0.53530176  0.38540950     0.18300
F269        F  0.60828905  0.52162996  0.32683145    -0.19400
C270        C  0.70110350  0.60800527  0.96930863    -0.20900
C271        C  0.70025784  0.57906890  0.46701787    -0.08900
C272        C  0.68043278  0.54835398  0.49681685     0.29900
C273        C  0.65427618  0.54447587  0.02177320    -0.20900
C274        C  0.65334299  0.57439430  0.02569382    -0.08900
C275        C  0.67740104  0.60638794  0.99924962     0.30000
F276        F  0.67768235  0.63597225  0.00166701    -0.19400
H277        H  0.71887502  0.63264456  0.94867667     0.18300
H278        H  0.63613065  0.51942192  0.04153493     0.18300
F279        F  0.68395935  0.52094460  0.49584797    -0.19400
C280        C  0.44070561  0.39230226  0.32088924    -0.20900
C281        C  0.47663553  0.42225173  0.31307327    -0.08900
C282        C  0.50373180  0.42540451  0.34028570     0.29900
C283        C  0.49486524  0.39902967  0.37455496    -0.20900
C284        C  0.45927367  0.36829320  0.38084372    -0.08900
C285        C  0.43215663  0.36537033  0.35417296     0.30000
F286        F  0.39732074  0.33642336  0.36070583    -0.19400
H287        H  0.41935174  0.38926798  0.30051726     0.18300
H288        H  0.51594740  0.40205713  0.39542025     0.18300
F289        F  0.53871524  0.45408171  0.33401216    -0.19400
C290        C  0.48226776  0.39563012  0.48638101    -0.20900
C291        C  0.44306534  0.36881262  0.98073901    -0.08900
C292        C  0.41715190  0.37005610  0.00286408     0.29900
C293        C  0.42809199  0.39652227  0.03118192    -0.20900
C294        C  0.46502199  0.42164457  0.03868735    -0.08900
C295        C  0.49084801  0.42086168  0.01547693     0.30000
F296        F  0.52681168  0.44456389  0.02135430    -0.19400
H297        H  0.50313479  0.39471589  0.47178158     0.18300
H298        H  0.40760590  0.39638311  0.04863025     0.18300
F299        F  0.38128568  0.34475397  0.99846972    -0.19400
C300        C  0.79337630  0.58671260  0.55105425    -0.20900
C301        C  0.80233193  0.56177742  0.55161323    -0.08900
C302        C  0.79222641  0.54097165  0.51640792     0.29900
C303        C  0.77462551  0.54588395  0.48128312    -0.20900
C304        C  0.76584028  0.57087428  0.48083574    -0.08900
C305        C  0.77526380  0.59117260  0.51627576     0.30000
F306        F  0.76858665  0.61649756  0.51645404    -0.19400
H307        H  0.80049062  0.60295605  0.57785869     0.18300
H308        H  0.76784522  0.53010018  0.45405761     0.18300
F309        F  0.79536353  0.50911090  0.01264481    -0.19400
C310        C  0.22254768  0.49548134  0.53045136    -0.20900
C311        C  0.24240880  0.51996103  0.06406101    -0.08900
C312        C  0.27987596  0.54415709  0.05410524     0.29900
C313        C  0.29502950  0.54285530  0.01585296    -0.20900
C314        C  0.27447441  0.51498248  0.48291920    -0.08900
C315        C  0.23678714  0.49326863  0.49218488     0.30000
F316        F  0.21354524  0.46912252  0.46466916    -0.19400
H317        H  0.19366091  0.47751545  0.53711107     0.18300
H318        H  0.32366340  0.56245340  0.00861644     0.18300
F319        F  0.30181910  0.56963714  0.08099003    -0.19400
C320        C  0.87500724  0.49826966  0.22423638    -0.20900
C321        C  0.91005750  0.52878771  0.22996184    -0.08900
C322        C  0.92415614  0.55932545  0.19970325     0.29900
C323        C  0.90257982  0.55985126  0.16633785    -0.20900
C324        C  0.86665967  0.53018554  0.16289857    -0.08900
C325        C  0.85337375  0.49908206  0.19149748     0.30000
F326        F  0.81853400  0.47022932  0.18950799    -0.19400
H327        H  0.86345983  0.47429798  0.24668370     0.18300
H328        H  0.91303307  0.58432673  0.14516937     0.18300
F329        F  0.95817005  0.58914656  0.20332651    -0.19400
C330        C  0.88082500  0.51151255  0.53008905    -0.20900
C331        C  0.90581341  0.54174123  0.50183411    -0.08900
C332        C  0.90870603  0.57392749  0.50446985     0.29900
C333        C  0.88712484  0.57552774  0.53474648    -0.20900
C334        C  0.86277879  0.54537608  0.56337844    -0.08900
C335        C  0.85985058  0.51334603  0.56067782     0.30000
F336        F  0.83706995  0.47915327  0.08758062    -0.19400
H337        H  0.87774829  0.48634103  0.52887966     0.18300
H338        H  0.88986889  0.60047790  0.53649105     0.18300
F339        F  0.93206426  0.60374574  0.47762179    -0.19400
C340        C  0.92189097  0.34515018  0.21795309    -0.20900
C341        C  0.89049528  0.33886137  0.19878018    -0.08900
C342        C  0.87842965  0.35987566  0.20767833     0.29900
C343        C  0.89657316  0.38564462  0.23730503    -0.20900
C344        C  0.92705621  0.39085199  0.25842620    -0.08900
C345        C  0.94034596  0.37118193  0.24727416     0.30000
F346        F  0.97003142  0.37570135  0.26620912    -0.19400
H347        H  0.93119692  0.32879147  0.21162146     0.18300
H348        H  0.88599213  0.40066326  0.24481633     0.18300
F349        F  0.84784050  0.35392822  0.18971133    -0.19400
C350        C  0.89068423  0.38157721  0.55019972    -0.20900
C351        C  0.92422013  0.39020835  0.53545144    -0.08900
C352        C  0.93723866  0.37063060  0.55482723     0.29900
C353        C  0.91960296  0.34361261  0.08698061    -0.20900
C354        C  0.88248569  0.33317470  0.60036694    -0.08900
C355        C  0.86998587  0.35329606  0.58230847     0.30000
F356        F  0.83747905  0.34514324  0.59549816    -0.19400
H357        H  0.88007059  0.39630797  0.53631254     0.18300
H358        H  0.93039068  0.32972781  0.10317283     0.18300
F359        F  0.96968882  0.37834470  0.54221312    -0.19400
C360        C  0.13520949  0.47703661  0.20840709    -0.20900
C361        C  0.15982146  0.50842215  0.18149379    -0.08900
C362        C  0.16017471  0.53904330  0.18437053     0.29900
C363        C  0.13795279  0.53882124  0.21538796    -0.20900
C364        C  0.11458210  0.50797855  0.24398504    -0.08900
C365        C  0.11236208  0.47651783  0.23883777     0.30000
F366        F  0.08983362  0.44587001  0.26493560    -0.19400
H367        H  0.13478753  0.45324997  0.20709671     0.18300
H368        H  0.14000539  0.56333269  0.21805509     0.18300
F369        F  0.18389161  0.56996951  0.15936080    -0.19400
C370        C  0.18825150  0.54696486  0.55068087    -0.20900
C371        C  0.17546552  0.51608463  0.57924630    -0.08900
C372        C  0.13980732  0.48591151  0.57603521     0.29900
C373        C  0.11728610  0.48663813  0.54440756    -0.20900
C374        C  0.12983240  0.51770502  0.51590258    -0.08900
C375        C  0.16568701  0.54801080  0.51948410     0.30000
F376        F  0.17926584  0.57852618  0.49248793    -0.19400
H377        H  0.21576804  0.57034877  0.55283882     0.18300
H378        H  0.08996313  0.46292241  0.54233422     0.18300
F379        F  0.12389715  0.45319796  0.10194130    -0.19400
C380        C  0.14035694  0.67325099  0.16016727    -0.20900
C381        C  0.12449681  0.69056147  0.14370902    -0.08900
C382        C  0.08897745  0.67698416  0.15636418     0.29900
C383        C  0.07135123  0.64933653  0.18969330    -0.20900
C384        C  0.08925845  0.63536049  0.21068782    -0.08900
C385        C  0.12270191  0.64541067  0.19341460     0.30000
F386        F  0.14002826  0.63111615  0.21138605    -0.19400
H387        H  0.16792110  0.68380123  0.15068615     0.18300
H388        H  0.04515237  0.64129331  0.20164404     0.18300
F389        F  0.07334894  0.69361125  0.14053725    -0.19400
C390        C  0.15303795  0.69973690  0.54420184    -0.20900
C391        C  0.14304909  0.72349693  0.54625884    -0.08900
C392        C  0.11826717  0.72200221  0.51638566     0.29900
C393        C  0.10231648  0.69585920  0.48671498    -0.20900
C394        C  0.11124634  0.67110000  0.48569969    -0.08900
C395        C  0.13768393  0.67404814  0.51403786     0.30000
F396        F  0.14737747  0.65096104  0.51424749    -0.19400
H397        H  0.17199464  0.70041548  0.56707542     0.18300
H398        H  0.08240747  0.69456162  0.46500757     0.18300
F399        F  0.10783153  0.74437036  0.51774158    -0.19400
C400        C  0.84187893  0.25059477  0.05823112    -0.20900
C401        C  0.82224515  0.25776083  0.08389806    -0.08900
C402        C  0.78878004  0.24994262  0.06999757     0.29900
C403        C  0.77526693  0.23532006  0.03052007    -0.20900
C404        C  0.79455517  0.22750579  0.00488359    -0.08900
C405        C  0.82812343  0.23538464  0.01912368     0.30000
F406        F  0.84733199  0.22776514  0.99564141    -0.19400
H407        H  0.86755478  0.25616485  0.06895266     0.18300
H408        H  0.75007340  0.23079995  0.01967698     0.18300
F409        F  0.76952217  0.25702295  0.09430742    -0.19400
C410        C  0.46588492  0.25018923  0.36900895    -0.20900
C411        C  0.50317575  0.27622735  0.36192622    -0.08900
C412        C  0.51532059  0.31232562  0.35335606     0.29900
C413        C  0.49301380  0.32271143  0.36404160    -0.20900
C414        C  0.45751618  0.29704256  0.38045333    -0.08900
C415        C  0.44293766  0.26052381  0.37711442     0.30000
F416        F  0.40743281  0.23452889  0.38675639    -0.19400
H417        H  0.45518071  0.22201873  0.37390258     0.18300
H418        H  0.50536852  0.35091570  0.36415807     0.18300
F419        F  0.55058926  0.33817767  0.34211206    -0.19400
C420        C  0.68593504  0.17042633  0.97911017    -0.20900
C421        C  0.71562530  0.16821683  0.98219857    -0.08900
C422        C  0.71640276  0.14644703  0.01693258     0.29900
C423        C  0.68832262  0.12782371  0.04852354    -0.20900
C424        C  0.65935955  0.13119318  0.04651526    -0.08900
C425        C  0.65816486  0.15236593  0.01119775     0.30000
F426        F  0.63012995  0.15554833  0.00771163    -0.19400
H427        H  0.68498751  0.18718925  0.95267013     0.18300
H428        H  0.68990463  0.11182652  0.07546049     0.18300
F429        F  0.74228607  0.13884989  0.50827838    -0.19400
C430        C  0.67463371  0.11648179  0.33568614    -0.20900
C431        C  0.65502362  0.13061639  0.32143715    -0.08900
C432        C  0.66359732  0.16227380  0.33762721     0.29900
C433        C  0.69254665  0.18039360  0.36527838    -0.20900
C434        C  0.71286284  0.16694565  0.37804336    -0.08900
C435        C  0.70346993  0.13459460  0.36367552     0.30000
F436        F  0.72291050  0.12119512  0.37561521    -0.19400
H437        H  0.66851306  0.09209316  0.32396343     0.18300
H438        H  0.69980694  0.20557528  0.37574928     0.18300
F439        F  0.64460895  0.17624464  0.32604958    -0.19400
C440        C  0.49697850  0.15251898  0.00385725    -0.20900
C441        C  0.52750764  0.15622195  0.02275906    -0.08900
C442        C  0.56195545  0.18203204  0.00316632     0.29900
C443        C  0.56599160  0.20572250  0.96816396    -0.20900
C444        C  0.53593376  0.20400915  0.95168861    -0.08900
C445        C  0.50111620  0.17628272  0.96842515     0.30000
F446        F  0.47157112  0.17441523  0.95350006    -0.19400
H447        H  0.47017483  0.13269183  0.01804595     0.18300
H448        H  0.59270762  0.22746413  0.44845541     0.18300
F449        F  0.59219324  0.18598810  0.01930563    -0.19400
C450        C  0.48656427  0.15754752  0.31940809    -0.20900
C451        C  0.51809933  0.16935748  0.29519898    -0.08900
C452        C  0.54919420  0.20424386  0.29888847     0.29900
C453        C  0.54891045  0.22623509  0.32688764    -0.20900
C454        C  0.51797555  0.21402215  0.35236687    -0.08900
C455        C  0.48655658  0.17952065  0.34811800     0.30000
F456        F  0.45626343  0.16668720  0.37239750    -0.19400
H457        H  0.46221179  0.13085335  0.31710320     0.18300
H458        H  0.57353600  0.25250773  0.33034229     0.18300
F459        F  0.58012116  0.21714170  0.27581623    -0.19400
C460        C  0.21008836  0.86903409  0.51864350    -0.20900
C461        C  0.24009837  0.87392220  0.49841395    -0.08900
C462        C  0.24328191  0.84503581  0.49994111     0.29900
C463        C  0.22473195  0.80711870  0.02640058    -0.20900
C464        C  0.18951639  0.80870226  0.54687951    -0.08900
C465        C  0.18489277  0.83666470  0.54256885     0.30000
F466        F  0.15657820  0.83297158  0.56293820    -0.19400
H467        H  0.20610161  0.89031703  0.51560799     0.18300
H468        H  0.22918816  0.78624349  0.03244721     0.18300
F469        F  0.27511729  0.83944423  0.97660213    -0.19400
C470        C  0.33798593  0.91532638  0.01646534    -0.20900
C471        C  0.32629694  0.93480968  0.99365905    -0.08900
C472        C  0.34120029  0.97001590  0.00360630     0.29900
C473        C  0.36705121  0.98529062  0.03563562    -0.20900
C474        C  0.37893486  0.96596633  0.05850605    -0.08900
C475        C  0.36405635  0.93065200  0.04853318     0.30000
F476        F  0.37499005  0.91101338  0.06921043    -0.19400
H477        H  0.32214417  0.89070980  0.51499374     0.18300
H478        H  0.37796056  0.01248140  0.04230657     0.18300
F479        F  0.33088111  0.98981830  0.98182448    -0.19400
C480        C  0.38435732  0.95678865  0.36247842    -0.20900
C481        C  0.39579513  0.98835372  0.33580149    -0.08900
C482        C  0.38224705  0.00836759  0.34432162     0.29900
C483        C  0.35509079  0.99498399  0.37594181    -0.20900
C484        C  0.34170409  0.96209827  0.40005628    -0.08900
C485        C  0.35746075  0.94370566  0.39464798     0.30000
F486        F  0.34433294  0.91138461  0.41726921    -0.19400
H487        H  0.39472766  0.94121300  0.35687563     0.18300
H488        H  0.34300783  0.00928002  0.37994298     0.18300
F489        F  0.39330686  0.03964465  0.32031378    -0.19400
C490        C  0.56798249  0.84700248  0.43806497    -0.20900
C491        C  0.53111544  0.82456598  0.42889992    -0.08900
C492        C  0.51791469  0.79218606  0.41118284     0.29900
C493        C  0.54131863  0.78249822  0.40289071    -0.20900
C494        C  0.57801810  0.80442512  0.41327118    -0.08900
C495        C  0.59124936  0.83706847  0.43034655     0.30000
F496        F  0.62681305  0.85941813  0.43933123    -0.19400
H497        H  0.57846593  0.87156916  0.45288784     0.18300
H498        H  0.53102536  0.75846685  0.38697105     0.18300
F499        F  0.48236277  0.76998603  0.40200113    -0.19400
C500        C  0.53909115  0.92516622  0.01041892    -0.20900
C501        C  0.50408216  0.89825231  0.99832866    -0.08900
C502        C  0.47445345  0.89719684  0.01289541     0.29900
C503        C  0.47948113  0.92098588  0.04195038    -0.20900
C504        C  0.51405549  0.94575240  0.05754448    -0.08900
C505        C  0.54416832  0.94880337  0.04003075     0.30000
F506        F  0.57802494  0.97259203  0.05384474    -0.19400
H507        H  0.56214773  0.92587704  0.99989869     0.18300
H508        H  0.45587731  0.91854607  0.05415646     0.18300
F509        F  0.44039461  0.87154839  0.00131543    -0.19400
C510        C  0.48828397  0.89779175  0.34564137    -0.20900
C511        C  0.51995771  0.93255013  0.33633885    -0.08900
C512        C  0.55026313  0.94333294  0.36230445     0.29900
C513        C  0.54821278  0.92024820  0.39762823    -0.20900
C514        C  0.51622796  0.88587988  0.40719603    -0.08900
C515        C  0.48647057  0.87469315  0.38038496     0.30000
F516        F  0.45506881  0.84171209  0.38899024    -0.19400
H517        H  0.46461983  0.88850133  0.32618685     0.18300
H518        H  0.57129737  0.92943747  0.41806858     0.18300
F519        F  0.58139463  0.97664226  0.35467529    -0.19400
N520        N  0.51665942  0.86852567  0.94531017    -0.03000
C521        C  0.51042993  0.83563124  0.94715056    -0.00400
C522        C  0.48350812  0.80854707  0.48249306    -0.23300
C523        C  0.47600843  0.82811431  0.50465292    -0.23500
C524        C  0.49389699  0.86181704  0.48221098    -0.00500
H525        H  0.47708984  0.78231385  0.49380334     0.13200
H526        H  0.46203807  0.81980518  0.53597736     0.13300
N527        N  0.30214849  0.92091371  0.95771097    -0.03000
C528        C  0.26581447  0.89575451  0.95916618    -0.00400
C529        C  0.25070552  0.89771849  0.92045180    -0.23300
C530        C  0.27862646  0.92475563  0.89376329    -0.23500
C531        C  0.30964649  0.93824588  0.91733000    -0.00500
H532        H  0.22267906  0.88003757  0.91182052     0.13200
H533        H  0.27687578  0.93213963  0.85994104     0.13300
N534        N  0.60329529  0.11476383  0.72783909    -0.05700
N535        N  0.62311261  0.13737896  0.75676129    -0.57800
N536        N  0.60309592  0.08315935  0.63417443    -0.05400
N537        N  0.62313646  0.08429731  0.60287086    -0.59900
N538        N  0.60262012  0.11171837  0.62903459    -0.05000
N539        N  0.62164176  0.13248672  0.59399514    -0.57800
N540        N  0.60383883  0.08618092  0.73376448    -0.04600
N541        N  0.62396715  0.08885981  0.76724162    -0.60300
C542        C  0.63580235  0.12097040  0.78131447     0.96500
C543        C  0.63415166  0.11509970  0.57780473     0.96300
N544        N  0.50491959  0.97984796  0.64990791    -0.05900
N545        N  0.48991495  0.95714402  0.62013577    -0.58400
N546        N  0.54400689  0.00198874  0.74616967    -0.04000
N547        N  0.55675600  0.99075208  0.77771825    -0.59600
N548        N  0.50841231  0.98235171  0.74871818    -0.05900
N549        N  0.49634426  0.95723639  0.78177592    -0.58600
N550        N  0.54049157  0.99926420  0.64603700    -0.03600
N551        N  0.55026366  0.98969643  0.61316923    -0.59700
Mn552      Mn  0.57394626  0.04243260  0.69007182     1.18400
C553        C  0.51822979  0.96338225  0.59729683     0.98600
C554        C  0.52669495  0.96284208  0.79995085     0.99200
N555        N  0.54366902  0.12578866  0.62025042    -0.05900
N556        N  0.55712289  0.14600533  0.58313470    -0.62200
N557        N  0.50816870  0.11132415  0.71935061    -0.04700
N558        N  0.49536528  0.12223245  0.74664860    -0.62900
N559        N  0.54369838  0.13108947  0.71913037    -0.05400
N560        N  0.55584015  0.15617566  0.74609998    -0.62500
N561        N  0.50809700  0.10581163  0.62044466    -0.04300
N562        N  0.49662689  0.11238510  0.58336232    -0.63200
Mn563      Mn  0.57412467  0.12190600  0.67430598     1.10700
C564        C  0.52765302  0.13742001  0.56024934     0.99800
C565        C  0.52533209  0.15025232  0.76324045     0.99900
N566        N  0.45079253  0.00121988  0.74347362    -0.05400
N567        N  0.43616799  0.98503815  0.78229046    -0.60800
N568        N  0.44574157  0.02272456  0.63683439    -0.04700
N569        N  0.42364888  0.01923571  0.60555385    -0.57500
N570        N  0.44452097  0.99329899  0.64441320    -0.06100
N571        N  0.42152110  0.96920019  0.61817905    -0.60400
N572        N  0.45055237  0.02982285  0.73537985    -0.05000
N573        N  0.43592829  0.03374895  0.76844574    -0.57600
Mn574      Mn  0.47627526  0.98803891  0.69715179     1.20200
Mn575      Mn  0.47721632  0.06751579  0.67749438     1.10100
Cl576      Cl  0.52544429  0.05494006  0.68485399    -0.85500
C577        C  0.42710334  0.00572721  0.79751785     0.96800
C578        C  0.40868738  0.98576335  0.59391472     0.96600
N579        N  0.52298832  0.23383612  0.88887423    -0.03000
C580        C  0.53089273  0.26753057  0.88091375    -0.00400
C581        C  0.55753869  0.29014317  0.90872645    -0.23300
C582        C  0.56111950  0.26956181  0.43627997    -0.23500
C583        C  0.54190230  0.23533225  0.92450701    -0.00500
H584        H  0.56251714  0.31684738  0.41502491     0.13200
H585        H  0.57708886  0.27747880  0.46515214     0.13300
N586        N  0.74639695  0.19062790  0.44644408    -0.03000
C587        C  0.78117399  0.21623730  0.45576952    -0.00400
C588        C  0.80300406  0.22793354  0.92448984    -0.23300
C589        C  0.78058301  0.21244690  0.89048330    -0.23500
C590        C  0.74588552  0.18928937  0.90811791    -0.00500
H591        H  0.83182192  0.24860416  0.92187160     0.13200
H592        H  0.78854836  0.21825098  0.85638561     0.13300
N593        N  0.05499928  0.60398686  0.91384193    -0.05700
N594        N  0.06107721  0.62783746  0.94023922    -0.57800
N595        N  0.07739791  0.59535545  0.81556767    -0.05400
N596        N  0.09540391  0.60768522  0.77795949    -0.59900
N597        N  0.05043386  0.59876096  0.81454540    -0.05000
N598        N  0.04951056  0.61340504  0.77609465    -0.60800
N599        N  0.08184568  0.60028921  0.91489983    -0.04600
N600        N  0.10645010  0.62131254  0.94230257    -0.60300
C601        C  0.09318021  0.63832754  0.95804480     0.96500
C602        C  0.07765701  0.61873226  0.75356036     0.96300
N603        N  0.06383868  0.49747834  0.83073824    -0.05900
N604        N  0.07128245  0.48349716  0.80083537    -0.58400
N605        N  0.08888026  0.53497606  0.92537544    -0.04000
N606        N  0.11404497  0.54672399  0.95479047    -0.59600
N607        N  0.06623954  0.49976429  0.93100963    -0.05900
N608        N  0.07563270  0.48691664  0.96469307    -0.58600
N609        N  0.08630727  0.53269361  0.82592850    -0.03600
N610        N  0.10914271  0.54329965  0.79272890    -0.59700
Mn611      Mn  0.08465749  0.56661756  0.87062734     1.18400
C612        C  0.09960231  0.51247939  0.77704555     0.98600
C613        C  0.10550707  0.51659448  0.97929805     0.99200
N614        N  0.96694924  0.54700323  0.82162151    -0.05900
N615        N  0.96071985  0.56008122  0.78523107    -0.62200
N616        N  0.94556690  0.51445532  0.92681802    -0.04700
N617        N  0.92076936  0.50453920  0.95732263    -0.62900
N618        N  0.96819831  0.54968238  0.92148117    -0.05400
N619        N  0.95890063  0.56434308  0.94803366    -0.62500
N620        N  0.94400041  0.51190508  0.82687400    -0.04300
N621        N  0.92155699  0.50037538  0.79428778    -0.63200
Mn622      Mn  0.01023112  0.57593332  0.86816187     1.10700
C623        C  0.93236471  0.53070839  0.76832870     0.99800
C624        C  0.92934801  0.53584602  0.97054794     0.99900
N625        N  0.98000920  0.44542624  0.93832789    -0.05400
N626        N  0.97561794  0.42380624  0.97312086    -0.60800
N627        N  0.95139489  0.44806240  0.83789567    -0.04700
N628        N  0.92864221  0.43077569  0.80721582    -0.57500
N629        N  0.97806521  0.44417994  0.83806419    -0.06100
N630        N  0.97380801  0.42400782  0.80728200    -0.60400
N631        N  0.95359162  0.44975638  0.93704261    -0.05000
N632        N  0.93098132  0.43139643  0.97061634    -0.57600
Mn633      Mn  0.02204263  0.47051577  0.88483675     1.20200
Mn634      Mn  0.94769027  0.48032558  0.88253907     1.10100
Cl635      Cl  0.01616756  0.52331056  0.87704249    -0.85500
C636        C  0.94493184  0.41538226  0.99310255     0.96800
C637        C  0.94284059  0.41595543  0.78817315     0.96600
N638        N  0.19891776  0.51534818  0.61116503    -0.03000
C639        C  0.23044037  0.51883771  0.60352798    -0.00400
C640        C  0.24609550  0.51882490  0.64274795    -0.23300
C641        C  0.22370820  0.51531361  0.67515926    -0.23500
C642        C  0.19495427  0.51325388  0.65502791    -0.00500
H643        H  0.27076504  0.52037603  0.64748483     0.13200
H644        H  0.22811580  0.51468249  0.70972748     0.13300
N645        N  0.86035328  0.30310823  0.63186727    -0.03000
C646        C  0.83082445  0.27055128  0.62344361    -0.00400
C647        C  0.81137301  0.25101780  0.66149049    -0.23300
C648        C  0.82942593  0.27260034  0.69440545    -0.23500
C649        C  0.85922965  0.30444127  0.67520080    -0.00500
H650        H  0.78618921  0.22450994  0.66473057     0.13200
H651        H  0.82092934  0.26637811  0.72834283     0.13300
N652        N  0.84238900  0.54744688  0.59663803    -0.03000
C653        C  0.81690329  0.55467501  0.59218048    -0.00400
C654        C  0.80384682  0.55335892  0.63278254    -0.23300
C655        C  0.82137739  0.54512922  0.66298979    -0.23500
C656        C  0.84475029  0.54167190  0.64025096    -0.00500
H657        H  0.78327771  0.55749755  0.63979178     0.13200
H658        H  0.81795345  0.54255589  0.69794918     0.13300
N659        N  0.15847635  0.74089867  0.08464613    -0.03000
C660        C  0.17668879  0.77700954  0.08424622    -0.00400
C661        C  0.17250778  0.78961184  0.62501526    -0.23300
C662        C  0.15562143  0.75828784  0.65149446    -0.23500
C663        C  0.14424136  0.73146583  0.62482514    -0.00500
H664        H  0.18546786  0.81623906  0.63527136     0.13200
H665        H  0.15175615  0.75522841  0.68642437     0.13300
N666        N  0.47237131  0.47148476  0.62354311    -0.05700
N667        N  0.45261344  0.45006249  0.59325565    -0.57800
N668        N  0.50850274  0.48007300  0.72208218    -0.05400
N669        N  0.51289434  0.46241632  0.75502543    -0.59900
N670        N  0.47564003  0.47238058  0.72353406    -0.05000
N671        N  0.45689181  0.44891514  0.75734757    -0.57800
N672        N  0.50516841  0.47885547  0.62244468    -0.04600
N673        N  0.50835272  0.46287979  0.59149003    -0.60300
C674        C  0.47551070  0.44504680  0.57331731     0.96500
C675        C  0.48065079  0.44323354  0.77696295     0.96300
N676        N  0.60303596  0.58551572  0.70550154    -0.05900
N677        N  0.62508675  0.60201271  0.73731845    -0.58400
N678        N  0.58587902  0.54769686  0.61240055    -0.04000
N679        N  0.60058510  0.53835829  0.58547973    -0.59600
N680        N  0.60034627  0.58229385  0.60543008    -0.05900
N681        N  0.62519476  0.59705958  0.57354592    -0.58600
N682        N  0.58751195  0.55070918  0.71223280    -0.03600
N683        N  0.59854803  0.54286406  0.74878009    -0.59700
Mn684      Mn  0.54707524  0.51377567  0.66738373     1.18400
C685        C  0.62192249  0.57509317  0.76426805     0.98600
C686        C  0.62494002  0.56928715  0.56106771     0.99200
N687        N  0.44580776  0.52125481  0.71905444    -0.05900
N688        N  0.42380363  0.50717130  0.75402450    -0.62200
N689        N  0.45672786  0.55362133  0.61305742    -0.04700
N690        N  0.44311328  0.56202821  0.57982991    -0.62900
N691        N  0.44112034  0.51877458  0.61847947    -0.05400
N692        N  0.41613767  0.50269165  0.58912977    -0.62500
N693        N  0.46101732  0.55605605  0.71290633    -0.04300
N694        N  0.44961857  0.56613571  0.74325580    -0.63200
Mn695      Mn  0.45743860  0.49483886  0.67138900     1.10700
C696        C  0.42652716  0.53557652  0.76908899     0.99800
C697        C  0.41782722  0.53008307  0.56514159     0.99900
N698        N  0.56852739  0.63051532  0.59748776    -0.05400
N699        N  0.58646975  0.65358653  0.56296480    -0.60800
N700        N  0.54091197  0.62508934  0.69997984    -0.04700
N701        N  0.53846778  0.64061228  0.73203991    -0.57500
N702        N  0.57355983  0.63246624  0.69733464    -0.06100
N703        N  0.59403143  0.65319185  0.72760396    -0.60400
N704        N  0.53591735  0.62339923  0.60037251    -0.05000
N705        N  0.53104256  0.64109951  0.56788472    -0.57600
Mn706      Mn  0.58751839  0.60871416  0.65064234     1.20200
Mn707      Mn  0.49832848  0.59005300  0.65649959     1.10100
Cl708      Cl  0.52256046  0.55180580  0.66123117    -0.85500
C709        C  0.56261642  0.65979635  0.54447825     0.96800
C710        C  0.57172511  0.65791981  0.74914117     0.96600
N711        N  0.44626265  0.33740531  0.92014425    -0.03000
C712        C  0.43843517  0.30396893  0.91828055    -0.00400
C713        C  0.41938241  0.28266991  0.95609593    -0.23300
C714        C  0.41701046  0.30458477  0.47485355    -0.23500
C715        C  0.43242867  0.33683422  0.95886104    -0.00500
H716        H  0.41086218  0.25690648  0.45590363     0.13200
H717        H  0.40513735  0.29572951  0.50743326     0.13300
N718        N  0.32088496  0.52274955  0.93618441    -0.03000
C719        C  0.28857865  0.51775896  0.94386709    -0.00400
C720        C  0.27194802  0.51554254  0.90476017    -0.23300
C721        C  0.29456016  0.51940169  0.87240376    -0.23500
C722        C  0.32442068  0.52367406  0.89234283    -0.00500
H723        H  0.24652034  0.51249036  0.90000487     0.13200
H724        H  0.28979839  0.51927268  0.83789635     0.13300
N725        N  0.72469239  0.57981812  0.93215502    -0.03000
C726        C  0.75243731  0.57586739  0.93641903    -0.00400
C727        C  0.76843473  0.58176989  0.89615173    -0.23300
C728        C  0.75026193  0.58950520  0.86623373    -0.23500
C729        C  0.72350082  0.58792926  0.88892331    -0.00500
H730        H  0.79097652  0.58050738  0.88925315     0.13200
H731        H  0.75498689  0.59418032  0.83136377     0.13300
N732        N  0.60114971  0.76847063  0.89517818    -0.03000
C733        C  0.60529849  0.80054532  0.89143248    -0.00400
C734        C  0.62531654  0.82099419  0.85397750    -0.23300
C735        C  0.63268614  0.80067206  0.83325823    -0.23500
C736        C  0.61706072  0.76847902  0.85876858    -0.00500
H737        H  0.62978678  0.84596076  0.84022697     0.13200
H738        H  0.64390668  0.80682843  0.80055077     0.13300
C739        C  0.39989486  0.56188200  0.80728390    -0.20900
C740        C  0.40321806  0.53333378  0.80476710    -0.08900
C741        C  0.38338014  0.50307643  0.83560413     0.29900
C742        C  0.35975321  0.50103393  0.86658262    -0.20900
C743        C  0.35521550  0.52891712  0.86728435    -0.08900
C744        C  0.37597044  0.55955570  0.83759782     0.30000
F745        F  0.37207444  0.58685891  0.83688286    -0.19400
H746        H  0.41480774  0.58567451  0.78446708     0.18300
H747        H  0.34367771  0.47691001  0.88865253     0.18300
F748        F  0.38626129  0.47519461  0.83537988    -0.19400
C749        C  0.33450680  0.49238287  0.49644736    -0.20900
C750        C  0.34601352  0.52111875  0.46448805    -0.08900
C751        C  0.38151877  0.55625174  0.96743884     0.29900
C752        C  0.40473975  0.55470935  0.49758383    -0.20900
C753        C  0.39331241  0.52599355  0.52971876    -0.08900
C754        C  0.35801209  0.49457042  0.52864930     0.30000
F755        F  0.34572842  0.46661454  0.55967285    -0.19400
H756        H  0.30714822  0.46836258  0.49647777     0.18300
H757        H  0.43174756  0.57924113  0.49784481     0.18300
F758        F  0.39274636  0.58423931  0.93681037    -0.19400
C759        C  0.56927067  0.70931830  0.83553150    -0.20900
C760        C  0.60627620  0.73557241  0.83988689    -0.08900
C761        C  0.63183101  0.73352339  0.81852946     0.29900
C762        C  0.62035035  0.70668934  0.79091905    -0.20900
C763        C  0.58330289  0.68222943  0.78356297    -0.08900
C764        C  0.55774196  0.68299227  0.80730426     0.30000
F765        F  0.52167781  0.65951710  0.80173092    -0.19400
H766        H  0.54924491  0.71086389  0.85141757     0.18300
H767        H  0.64052311  0.70636342  0.77343264     0.18300
F768        F  0.66778828  0.75855154  0.82267731    -0.19400
C769        C  0.60706447  0.71089030  0.49041452    -0.20900
C770        C  0.57133328  0.68711541  0.50691321    -0.08900
C771        C  0.54437078  0.69022923  0.48751656     0.29900
C772        C  0.55315706  0.71637598  0.45258242    -0.20900
C773        C  0.59299355  0.74425716  0.93421778    -0.08900
C774        C  0.61767578  0.73591667  0.94787530     0.30000
F775        F  0.65014518  0.75234550  0.92667450    -0.19400
H776        H  0.62846007  0.70941861  0.50449177     0.18300
H777        H  0.53180559  0.71739789  0.43767600     0.18300
F778        F  0.50929066  0.66755414  0.50162467    -0.19400
C779        C  0.67842456  0.61366971  0.80488410    -0.20900
C780        C  0.64482192  0.58058725  0.80240181    -0.08900
C781        C  0.63485305  0.55230201  0.83482813     0.29900
C782        C  0.65938854  0.55622588  0.86665899    -0.20900
C783        C  0.69426301  0.58818434  0.86632834    -0.08900
C784        C  0.70311450  0.61733647  0.83620018     0.30000
F785        F  0.73661527  0.64861972  0.83526887    -0.19400
H786        H  0.68662475  0.63603111  0.78076251     0.18300
H787        H  0.65218363  0.53335408  0.88937591     0.18300
F788        F  0.60203658  0.52037559  0.83468935    -0.19400
C789        C  0.69521187  0.60652535  0.46842872    -0.20900
C790        C  0.70194517  0.57815823  0.96552030    -0.08900
C791        C  0.67844156  0.54636247  0.99221468     0.29900
C792        C  0.65590995  0.54524274  0.52704645    -0.20900
C793        C  0.65097910  0.57287161  0.52862865    -0.08900
C794        C  0.67116880  0.60371243  0.49895153     0.30000
F795        F  0.66730253  0.63098916  0.49882320    -0.19400
H796        H  0.71022119  0.63041746  0.44578364     0.18300
H797        H  0.64080844  0.52115085  0.54937516     0.18300
F798        F  0.67789418  0.51678916  0.98846294    -0.19400
C799        C  0.43611086  0.38549809  0.82183163    -0.20900
C800        C  0.47163749  0.41637172  0.81447761    -0.08900
C801        C  0.49879225  0.42083421  0.84256841     0.29900
C802        C  0.49042372  0.39511106  0.87744218    -0.20900
C803        C  0.45525125  0.36373543  0.88386381    -0.08900
C804        C  0.42805105  0.35920913  0.85595995     0.30000
F805        F  0.39362062  0.32943019  0.86217103    -0.19400
H806        H  0.41474720  0.38137413  0.80062649     0.18300
H807        H  0.51167391  0.39925186  0.89874609     0.18300
F808        F  0.53339412  0.45032832  0.83671092    -0.19400
C809        C  0.47986611  0.39467537  0.98701634    -0.20900
C810        C  0.44576278  0.37014648  0.47813317    -0.08900
C811        C  0.41912816  0.37088151  0.49922618     0.29900
C812        C  0.42894724  0.39627538  0.52872341    -0.20900
C813        C  0.46545648  0.42082089  0.53852122    -0.08900
C814        C  0.49213725  0.42066058  0.51625579     0.30000
F815        F  0.52778745  0.44383640  0.52433284    -0.19400
H816        H  0.50023149  0.39314492  0.97222224     0.18300
H817        H  0.40784412  0.39572757  0.54524298     0.18300
F818        F  0.38353257  0.34615276  0.49245146    -0.19400
C819        C  0.79450762  0.58317727  0.04654988    -0.20900
C820        C  0.80167820  0.55692440  0.04745553    -0.08900
C821        C  0.79088322  0.53598004  0.01232011     0.29900
C822        C  0.77355792  0.54148453  0.97727855    -0.20900
C823        C  0.76600871  0.56742897  0.97677611    -0.08900
C824        C  0.77695102  0.58845480  0.01173667     0.30000
F825        F  0.77211313  0.61508266  0.01152146    -0.19400
H826        H  0.80230017  0.59955696  0.07335290     0.18300
H827        H  0.76583439  0.52527449  0.95030853     0.18300
F828        F  0.79773518  0.51483012  0.51655651    -0.19400
C829        C  0.22071986  0.49461310  0.03475573    -0.20900
C830        C  0.24533289  0.51939452  0.56058271    -0.08900
C831        C  0.28300441  0.54132082  0.55125382     0.29900
C832        C  0.29725837  0.53921320  0.51286871    -0.20900
C833        C  0.27331663  0.51730778  0.98663801    -0.08900
C834        C  0.23583197  0.49324943  0.99663158     0.30000
F835        F  0.21373428  0.46767581  0.96994223    -0.19400
H836        H  0.19208343  0.47501221  0.04196926     0.18300
H837        H  0.32612881  0.55729068  0.50618079     0.18300
F838        F  0.30615205  0.56538681  0.57892120    -0.19400
C839        C  0.87844864  0.50145033  0.72114129    -0.20900
C840        C  0.91287154  0.53192138  0.72932430    -0.08900
C841        C  0.92706107  0.56382021  0.70158936     0.29900
C842        C  0.90602616  0.56570549  0.66861354    -0.20900
C843        C  0.87059207  0.53602017  0.66292711    -0.08900
C844        C  0.85731893  0.50357113  0.68866212     0.30000
F845        F  0.82284750  0.47465420  0.68446502    -0.19400
H846        H  0.86690630  0.47646978  0.74161361     0.18300
H847        H  0.91637914  0.59114636  0.64970827     0.18300
F848        F  0.96049689  0.59371305  0.70760439    -0.19400
C849        C  0.88210434  0.50781984  0.03069614    -0.20900
C850        C  0.90658519  0.53813362  0.00223527    -0.08900
C851        C  0.90817739  0.56970981  0.00408222     0.29900
C852        C  0.88568348  0.57061306  0.03363206    -0.20900
C853        C  0.86175697  0.54039556  0.06241048    -0.08900
C854        C  0.86023829  0.50898501  0.06063966     0.30000
F855        F  0.83616639  0.48357350  0.58736988    -0.19400
H856        H  0.88008563  0.48311992  0.03008024     0.18300
H857        H  0.88734979  0.59508354  0.03465431     0.18300
F858        F  0.93104092  0.59955417  0.97699547    -0.19400
C859        C  0.91895848  0.34956620  0.70562050    -0.20900
C860        C  0.88273607  0.33658851  0.69840539    -0.08900
C861        C  0.86772973  0.35197962  0.71745557     0.29900
C862        C  0.88810621  0.37876342  0.74514161    -0.20900
C863        C  0.92370214  0.39038878  0.75486755    -0.08900
C864        C  0.93941557  0.37627326  0.73383794     0.30000
F865        F  0.97406140  0.38755130  0.74125223    -0.19400
H866        H  0.93083590  0.33790472  0.69092893     0.18300
H867        H  0.87541595  0.38947818  0.76019988     0.18300
F868        F  0.83295910  0.34037610  0.71013083    -0.19400
C869        C  0.89146503  0.37887338  0.04456049    -0.20900
C870        C  0.92551152  0.38808433  0.03082900    -0.08900
C871        C  0.93957052  0.37028801  0.05268307     0.29900
C872        C  0.91635732  0.34226236  0.58704310    -0.20900
C873        C  0.88540639  0.33414554  0.09966804    -0.08900
C874        C  0.87150696  0.35202266  0.07842961     0.30000
F875        F  0.83844595  0.34317969  0.09030832    -0.19400
H876        H  0.87987486  0.39205651  0.02858510     0.18300
H877        H  0.92624601  0.32694520  0.60119864     0.18300
F878        F  0.97223467  0.37821345  0.04067973    -0.19400
C879        C  0.13848011  0.47960947  0.70226017    -0.20900
C880        C  0.16621595  0.51190878  0.67937403    -0.08900
C881        C  0.17025838  0.54378872  0.68670688     0.29900
C882        C  0.14771863  0.54344078  0.71733006    -0.20900
C883        C  0.12060811  0.51130842  0.74148609    -0.08900
C884        C  0.11561110  0.47911984  0.73262717     0.30000
F885        F  0.08985310  0.44737980  0.75470643    -0.19400
H886        H  0.13542043  0.45484589  0.69778430     0.18300
H887        H  0.15227069  0.56867137  0.72307113     0.18300
F888        F  0.19743206  0.57560703  0.66612143    -0.19400
C889        C  0.18451502  0.54608414  0.05383942    -0.20900
C890        C  0.17157990  0.51465903  0.08130508    -0.08900
C891        C  0.13667376  0.48399202  0.07587744     0.29900
C892        C  0.11523757  0.48465699  0.04261562    -0.20900
C893        C  0.12811868  0.51615931  0.01484390    -0.08900
C894        C  0.16299083  0.54709575  0.02114992     0.30000
F895        F  0.17670556  0.57822098  0.99536254    -0.19400
H896        H  0.21142318  0.56987353  0.05789819     0.18300
H897        H  0.08856705  0.46053706  0.03859531     0.18300
F898        F  0.12721943  0.45548775  0.60278932    -0.19400
C899        C  0.14151203  0.67984775  0.66030083    -0.20900
C900        C  0.12289648  0.69379693  0.64202894    -0.08900
C901        C  0.08663694  0.67750852  0.65427982     0.29900
C902        C  0.07071366  0.65049322  0.68861807    -0.20900
C903        C  0.09094143  0.63965102  0.71084124    -0.08900
C904        C  0.12561133  0.65267188  0.69445539     0.30000
F905        F  0.14567161  0.64208563  0.71413875    -0.19400
H906        H  0.16973442  0.69270040  0.65147533     0.18300
H907        H  0.04365589  0.64022146  0.70001273     0.18300
F908        F  0.06836696  0.69097078  0.63693261    -0.19400
C909        C  0.15614501  0.69537862  0.04524739    -0.20900
C910        C  0.14646873  0.71923167  0.04858765    -0.08900
C911        C  0.12057360  0.71751654  0.02060459     0.29900
C912        C  0.10363900  0.69142781  0.99100205    -0.20900
C913        C  0.11261598  0.66688762  0.98825531    -0.08900
C914        C  0.13974175  0.66967312  0.01513657     0.30000
F915        F  0.14925689  0.64654537  0.01382879    -0.19400
H916        H  0.17576012  0.69609407  0.06696268     0.18300
H917        H  0.08309087  0.69012671  0.97057182     0.18300
F918        F  0.11020770  0.73977101  0.02371301    -0.19400
C919        C  0.84121645  0.25554300  0.55260886    -0.20900
C920        C  0.81895416  0.25836197  0.57981306    -0.08900
C921        C  0.78450871  0.24774773  0.56610488     0.29900
C922        C  0.77260356  0.23458289  0.52566843    -0.20900
C923        C  0.79416913  0.23036783  0.49881535    -0.08900
C924        C  0.82888481  0.24135162  0.51260112     0.30000
F925        F  0.85056030  0.23751061  0.48801635    -0.19400
H926        H  0.86773930  0.26333394  0.56297002     0.18300
H927        H  0.74670844  0.22836124  0.51524405     0.18300
F928        F  0.76263479  0.25077910  0.59151577    -0.19400
C929        C  0.46661917  0.24805194  0.87871966    -0.20900
C930        C  0.50329826  0.27462705  0.86812194    -0.08900
C931        C  0.51416961  0.31033558  0.85923395     0.29900
C932        C  0.49142439  0.31993065  0.87102281    -0.20900
C933        C  0.45657776  0.29393997  0.88909578    -0.08900
C934        C  0.44315529  0.25749201  0.88789779     0.30000
F935        F  0.40835831  0.23087387  0.90013105    -0.19400
H936        H  0.45687760  0.22019448  0.88507826     0.18300
H937        H  0.50305304  0.34822109  0.87003286     0.18300
F938        F  0.54864753  0.33670139  0.84536071    -0.19400
C939        C  0.68832168  0.17344380  0.47666753    -0.20900
C940        C  0.71620999  0.16864901  0.47664721    -0.08900
C941        C  0.71549707  0.14387685  0.50797704     0.29900
C942        C  0.68760447  0.12486784  0.53977313    -0.20900
C943        C  0.66058897  0.13097781  0.54103094    -0.08900
C944        C  0.66082490  0.15496722  0.50868189     0.30000
F945        F  0.63478553  0.16103030  0.50842687    -0.19400
H946        H  0.68888129  0.19286687  0.45315590     0.18300
H947        H  0.68801584  0.10663559  0.56446836     0.18300
F948        F  0.74472818  0.14372554  0.02055363    -0.19400
C949        C  0.66988612  0.11725496  0.84487931    -0.20900
C950        C  0.66171176  0.13760401  0.81669916    -0.08900
C951        C  0.67929577  0.17429458  0.82200877     0.29900
C952        C  0.70518073  0.19025219  0.85372027    -0.20900
C953        C  0.71380342  0.17010740  0.88109591    -0.08900
C954        C  0.69571257  0.13335625  0.87694764     0.30000
F955        F  0.70440507  0.11356665  0.90228079    -0.19400
H956        H  0.65677790  0.08902543  0.84156255     0.18300
H957        H  0.71948985  0.21880829  0.85602791     0.18300
F958        F  0.67282280  0.19530750  0.79540242    -0.19400
C959        C  0.49858176  0.15375664  0.50198017    -0.20900
C960        C  0.52972012  0.15746797  0.51861996    -0.08900
C961        C  0.56345899  0.18310614  0.49731706     0.29900
C962        C  0.56619649  0.20634291  0.46245644    -0.20900
C963        C  0.53555229  0.20454953  0.44824588    -0.08900
C964        C  0.50146616  0.17737692  0.46728650     0.30000
F965        F  0.47167125  0.17633411  0.45594588    -0.19400
H966        H  0.47234018  0.13430803  0.51775996     0.18300
H967        H  0.59296899  0.22690762  0.95551663     0.18300
F968        F  0.59427548  0.18749421  0.51182869    -0.19400
C969        C  0.49129185  0.16288752  0.81206786    -0.20900
C970        C  0.52452693  0.17265864  0.79427930    -0.08900
C971        C  0.55665819  0.20382739  0.80662726     0.29900
C972        C  0.55539797  0.22456005  0.83578532    -0.20900
C973        C  0.52233290  0.21448694  0.85424949    -0.08900
C974        C  0.49016924  0.18333234  0.84215595     0.30000
F975        F  0.45786977  0.17198260  0.86022845    -0.19400
H976        H  0.46610455  0.13889953  0.80339898     0.18300
H977        H  0.58054652  0.24811348  0.84538496     0.18300
F978        F  0.58943806  0.21412524  0.79118577    -0.19400
C979        C  0.21484955  0.86225170  0.01246103    -0.20900
C980        C  0.24464630  0.86618568  0.99303855    -0.08900
C981        C  0.24882909  0.83793183  0.99890101     0.29900
C982        C  0.21835576  0.81271995  0.52468297    -0.20900
C983        C  0.19588044  0.80400838  0.04727809    -0.08900
C984        C  0.19062435  0.83141759  0.03948374     0.30000
F985        F  0.16230136  0.82847551  0.05868976    -0.19400
H986        H  0.21020055  0.88298742  0.00625350     0.18300
H987        H  0.22234404  0.79144852  0.52789786     0.18300
F988        F  0.26945102  0.84753383  0.47606971    -0.19400
C989        C  0.33471100  0.91815362  0.52154098    -0.20900
C990        C  0.32492140  0.93919480  0.49830231    -0.08900
C991        C  0.34276872  0.97518727  0.50705260     0.29900
C992        C  0.36970729  0.98976066  0.53790991    -0.20900
C993        C  0.37980048  0.96899322  0.56114746    -0.08900
C994        C  0.36184741  0.93280706  0.55269778     0.30000
F995        F  0.37058574  0.91159794  0.57421000    -0.19400
H996        H  0.32797341  0.88874613  0.00856685     0.18300
H997        H  0.38285274  0.01762203  0.54341715     0.18300
F998        F  0.33425353  0.99649134  0.48524539    -0.19400
C999        C  0.39613459  0.96540278  0.86472343    -0.20900
C1000       C  0.40314687  0.99441939  0.83576866    -0.08900
C1001       C  0.38381562  0.00943182  0.84088712     0.29900
C1002       C  0.35504453  0.99277176  0.87102894    -0.20900
C1003       C  0.34585881  0.96168455  0.89688290    -0.08900
C1004       C  0.36763599  0.94906588  0.89526167     0.30000
F1005       F  0.35883124  0.91855461  0.91942552    -0.19400
H1006       H  0.41109657  0.95382148  0.86177973     0.18300
H1007       H  0.33833754  0.00264589  0.87212240     0.18300
F1008       F  0.39042648  0.03815394  0.81438301    -0.19400
C1009       C  0.57208656  0.85114811  0.93500465    -0.20900
C1010       C  0.53480321  0.82836303  0.92823783    -0.08900
C1011       C  0.52062938  0.79536282  0.91169983     0.29900
C1012       C  0.54355715  0.78553060  0.90182904    -0.20900
C1013       C  0.58066804  0.80765267  0.91014157    -0.08900
C1014       C  0.59486874  0.84090562  0.92606231     0.30000
F1015       F  0.63090983  0.86365847  0.93231751    -0.19400
H1016       H  0.58334665  0.87630616  0.94873854     0.18300
H1017       H  0.53248356  0.76100826  0.88663255     0.18300
F1018       F  0.48461839  0.77274552  0.90508283    -0.19400
C1019       C  0.53608187  0.92099417  0.51114640    -0.20900
C1020       C  0.50050241  0.89294061  0.50221384    -0.08900
C1021       C  0.47144684  0.89088396  0.52086657     0.29900
C1022       C  0.47783694  0.91520613  0.54993013    -0.20900
C1023       C  0.51330781  0.94175230  0.56158534    -0.08900
C1024       C  0.54255944  0.94527161  0.54073463     0.30000
F1025       F  0.57718775  0.97066043  0.55069286    -0.19400
H1026       H  0.55880464  0.92243516  0.49783782     0.18300
H1027       H  0.45469763  0.91209153  0.56484805     0.18300
F1028       F  0.43678583  0.86403126  0.51288386    -0.19400
C1029       C  0.49437024  0.90336199  0.84441799    -0.20900
C1030       C  0.52628319  0.93795057  0.83536206    -0.08900
C1031       C  0.55664958  0.94811555  0.86097619     0.29900
C1032       C  0.55419549  0.92468181  0.89615193    -0.20900
C1033       C  0.52184266  0.89054310  0.90556160    -0.08900
C1034       C  0.49222763  0.87990248  0.87877777     0.30000
F1035       F  0.46049936  0.84720972  0.88736185    -0.19400
H1036       H  0.47068475  0.89451045  0.82516810     0.18300
H1037       H  0.57713825  0.93347674  0.91675474     0.18300
F1038       F  0.58813582  0.98114776  0.85328064    -0.19400
loop_ 
_geom_bond_atom_site_label_1 
_geom_bond_atom_site_label_2 
_geom_bond_distance 
_geom_bond_site_symmetry_2 
_ccdc_geom_bond_type 
N1            C2   1.361       .  A
N1          C524   1.356       .  A
N1          C514   1.446       .  S
C2          C491   1.476       .  S
C2          C522   1.383       .  A
C3            C4   1.369   1_556  A
C3          C521   1.383       .  A
C3            H6   1.083       .  S
C4            C5   1.380   1_554  A
C4            H7   1.082       .  S
C5          N520   1.353       .  A
C5          C501   1.469       .  S
N8           C12   1.352       .  A
N8            C9   1.359       .  A
N8          C990   1.451       .  S
C9          C461   1.465       .  S
C9           C10   1.382       .  A
C10          C11   1.366       .  A
C10          H13   1.083       .  S
C11          C12   1.379       .  A
C11          H14   1.082       .  S
C12         C484   1.462       .  S
N15          N16   1.319       .  A
N15          N21   1.317       .  A
N15         Mn44   2.206       .  S
N16          C23   1.353       .  A
N17          N19   1.314       .  A
N17          N18   1.324       .  A
N17         Mn33   2.219       .  S
N18          C24   1.357       .  A
N19          N20   1.320       .  A
N19         Mn44   2.194       .  S
N20          C24   1.351       .  A
N21          N22   1.322       .  A
N21         Mn33   2.212       .  S
N22          C23   1.356       .  A
C23         C431   1.481       .  S
C24         C424   1.481       .  S
N25          N31   1.317       .  A
N25          N26   1.315       .  A
N25         Mn55   2.184       .  S
N26          C34   1.349       .  A
N27          N28   1.325       .  A
N27          N29   1.316       .  A
N27         Mn33   2.221   1_565  S
N28          C35   1.357       .  A
N29          N30   1.323       .  A
N29         Mn55   2.216       .  S
N30          C35   1.356       .  A
N31          N32   1.324       .  A
N31         Mn33   2.220   1_565  S
N32          C34   1.358       .  A
Mn33        Cl57   2.561       .  S
C34         C504   1.477       .  S
C35         C511   1.495       .  S
N36          N37   1.314       .  A
N36          N42   1.315       .  A
N36         Mn44   2.189       .  S
N37          C45   1.349       .  A
N38          N40   1.313       .  A
N38          N39   1.323       .  A
N38         Mn56   2.206       .  S
N39          C46   1.354       .  A
N40          N41   1.321       .  A
N40         Mn44   2.207       .  S
N41          C46   1.356       .  A
N42          N43   1.324       .  A
N42         Mn56   2.208       .  S
N43          C45   1.358       .  A
Mn44        Cl57   2.533       .  S
C45         C441   1.479       .  S
C46         C451   1.487       .  S
N47          N48   1.322       .  A
N47          N53   1.316   1_565  A
N47         Mn55   2.204       .  S
N48          C58   1.356       .  A
N49          N50   1.323       .  A
N49          N51   1.314   1_545  A
N49         Mn56   2.206       .  S
N50          C59   1.356   1_545  A
N51          N52   1.322       .  A
N51         Mn55   2.211       .  S
N52          C59   1.354       .  A
N53          N54   1.313       .  A
N53         Mn56   2.182       .  S
N54          C58   1.347   1_545  A
Mn55        Cl57   2.542   1_565  S
Mn56        Cl57   2.556       .  S
C58         C481   1.471       .  S
C59         C474   1.491       .  S
N60          C64   1.357       .  A
N60          C61   1.364       .  A
N60         C454   1.442       .  S
C61         C411   1.490       .  S
C61          C62   1.391       .  A
C62         C582   1.363       .  A
C62         H584   1.082       .  S
C63         C581   1.363       .  A
C63         C583   1.374       .  A
C63          H66   1.082       .  S
C64         C963   1.471       .  S
C64         C582   1.374       .  A
H65         C581   1.082       .  S
N67          C68   1.361       .  A
N67         C590   1.357       .  A
N67         C421   1.443       .  S
C68         C404   1.485   1_556  S
C68         C588   1.384       .  A
C69          C70   1.380       .  A
C69         C587   1.386       .  A
C69          H72   1.082       .  S
C70          C71   1.380       .  A
C70          H73   1.082       .  S
C71         N586   1.351       .  A
C71         C434   1.473       .  S
N74          N75   1.323       .  A
N74          N80   1.319       .  A
N74        Mn103   2.224       .  S
N75          C82   1.356       .  A
N76          N78   1.314       .  A
N76          N77   1.317       .  A
N76         Mn92   2.178       .  S
N77          C83   1.350       .  A
N78          N79   1.318       .  A
N78        Mn103   2.189       .  S
N79          C83   1.352       .  A
N80          N81   1.324       .  A
N80         Mn92   2.225       .  S
N81          C82   1.356       .  A
C82         C394   1.493       .  S
C83         C384   1.468       .  S
N84          N90   1.315       .  A
N84          N85   1.327       .  A
N84        Mn114   2.228       .  S
N85          C93   1.360       .  A
N86          N87   1.320       .  A
N86          N88   1.316       .  A
N86         Mn92   2.202       .  S
N87          C94   1.353       .  A
N88          N89   1.324       .  A
N88        Mn114   2.221       .  S
N89          C94   1.357       .  A
N90          N91   1.322       .  A
N90         Mn92   2.216       .  S
N91          C93   1.354       .  A
Mn92       Cl116   2.542       .  S
C93         C364   1.499       .  S
C94         C374   1.487       .  S
N95          N96   1.324       .  A
N95         N101   1.314       .  A
N95        Mn103   2.213   1_655  S
N96         C104   1.356       .  A
N97          N99   1.317       .  A
N97          N98   1.323       .  A
N97        Mn115   2.225       .  S
N98         C105   1.356       .  A
N99         N100   1.326       .  A
N99        Mn103   2.227   1_655  S
N100        C105   1.358       .  A
N101        N102   1.321       .  A
N101       Mn115   2.204       .  S
N102        C104   1.355       .  A
Mn103      Cl116   2.561       .  S
C104        C321   1.489       .  S
C105        C331   1.498       .  S
N106        N107   1.323       .  A
N106        N112   1.317       .  A
N106       Mn114   2.219   1_655  S
N107        C117   1.356       .  A
N108        N109   1.321       .  A
N108        N110   1.316       .  A
N108       Mn115   2.207       .  S
N109        C118   1.354       .  A
N110        N111   1.321       .  A
N110       Mn114   2.202   1_655  S
N111        C118   1.353       .  A
N112        N113   1.319       .  A
N112       Mn115   2.201       .  S
N113        C117   1.353       .  A
Mn114      Cl116   2.564       .  S
Mn115      Cl116   2.541   1_655  S
C117        C351   1.484       .  S
C118        C344   1.483       .  S
N119        C123   1.361       .  A
N119        C120   1.364       .  A
N119        C890   1.436       .  S
C120        C311   1.501       .  S
C120        C121   1.385       .  A
C121        C122   1.380       .  A
C121        H124   1.082       .  S
C122        C123   1.382       .  A
C122        H125   1.082       .  S
C123        C361   1.492       .  S
N126        C130   1.351       .  A
N126        C127   1.353       .  A
N126        C873   1.436       .  S
C127        C401   1.471       .  S
C127        C128   1.381       .  A
C128        C129   1.378       .  A
C128        H131   1.082       .  S
C129        C130   1.382       .  A
C129        H132   1.082       .  S
C130        C341   1.471       .  S
N133        C137   1.363       .  A
N133        C134   1.369       .  A
N133        C853   1.448       .  S
C134        C820   1.491       .  S
C134        C135   1.384       .  A
C135        C136   1.368       .  A
C135        H138   1.082       .  S
C136        C137   1.379       .  A
C136        H139   1.082       .  S
C137        C324   1.481       .  S
N140        C141   1.359       .  A
N140        C663   1.353       .  A
N140        C391   1.446       .  S
C141        C464   1.464       .  S
C141        C661   1.383       .  A
C142        C143   1.366       .  A
C142        C660   1.382       .  A
C142        H145   1.082       .  S
C143        C144   1.379       .  A
C143        H146   1.082       .  S
C144        N659   1.350       .  A
C144        C381   1.457       .  S
N147        N148   1.324       .  A
N147        N153   1.318       .  A
N147       Mn176   2.220       .  S
N148        C155   1.357       .  A
N149        N151   1.315       .  A
N149        N150   1.320       .  A
N149       Mn165   2.199       .  S
N150        C156   1.352       .  A
N151        N152   1.323       .  A
N151       Mn176   2.212       .  S
N152        C156   1.356       .  A
N153        N154   1.320       .  A
N153       Mn165   2.212       .  S
N154        C155   1.354       .  A
C155        C294   1.487       .  S
C156        C281   1.481       .  S
N157        N163   1.316       .  A
N157        N158   1.323       .  A
N157       Mn187   2.217       .  S
N158        C166   1.356       .  A
N159        N160   1.321       .  A
N159        N161   1.317       .  A
N159       Mn165   2.207       .  S
N160        C167   1.353       .  A
N161        N162   1.326       .  A
N161       Mn187   2.231       .  S
N162        C167   1.360       .  A
N163        N164   1.322       .  A
N163       Mn165   2.209       .  S
N164        C166   1.355       .  A
Mn165      Cl189   2.536       .  S
C166        C261   1.489       .  S
C167        C274   1.495       .  S
N168        N169   1.326       .  A
N168        N174   1.316       .  A
N168       Mn176   2.222       .  S
N169        C177   1.358       .  A
N170        N172   1.316       .  A
N170        N171   1.319       .  A
N170       Mn188   2.192       .  S
N171        C178   1.351       .  A
N172        N173   1.323       .  A
N172       Mn176   2.221       .  S
N173        C178   1.357       .  A
N174        N175   1.322       .  A
N174       Mn188   2.222       .  S
N175        C177   1.356       .  A
Mn176      Cl189   2.572       .  S
C177        C221   1.496       .  S
C178        C234   1.479       .  S
N179        N180   1.326       .  A
N179        N185   1.318       .  A
N179       Mn187   2.236       .  S
N180        C190   1.360       .  A
N181        N182   1.316       .  A
N181        N183   1.315       .  A
N181       Mn188   2.185       .  S
N182        C191   1.351       .  A
N183        N184   1.322       .  A
N183       Mn187   2.204       .  S
N184        C191   1.354       .  A
N185        N186   1.322       .  A
N185       Mn188   2.216       .  S
N186        C190   1.353       .  A
Mn187      Cl189   2.571       .  S
Mn188      Cl189   2.536       .  S
C190        C251   1.498       .  S
C191        C244   1.474       .  S
N192        C196   1.359       .  A
N192        C193   1.366       .  A
N192        C284   1.439       .  S
C193        C414   1.503       .  S
C193        C194   1.390       .  A
C194        C714   1.372       .  A
C194        H716   1.081       .  S
C195        C713   1.372       .  A
C195        C715   1.377       .  A
C195        H198   1.082   1_556  S
C196        C810   1.483       .  S
C196        C714   1.377       .  A
H197        C713   1.082       .  S
N199        C203   1.362       .  A
N199        C200   1.366       .  A
N199        C750   1.438       .  S
C200        C314   1.502       .  S
C200        C201   1.385       .  A
C201        C202   1.376       .  A
C201        H204   1.082       .  S
C202        C203   1.381       .  A
C202        H205   1.082       .  S
C203        C224   1.492       .  S
N206        C210   1.363       .  A
N206        C207   1.368       .  A
N206        C271   1.450       .  S
C207        C304   1.487       .  S
C207        C208   1.382       .  A
C208        C209   1.369       .  A
C208        H211   1.082       .  S
C209        C210   1.380       .  A
C209        H212   1.082       .  S
C210        C264   1.481       .  S
N213        C217   1.356       .  A
N213        C214   1.361       .  A
N213        C254   1.451       .  S
C214        C494   1.479       .  S
C214        C215   1.384       .  A
C215        C216   1.371       .  A
C215        H218   1.083       .  S
C216        C217   1.380       .  A
C216        H219   1.082       .  S
C217        C241   1.473       .  S
C220        C221   1.406       .  A
C220        C225   1.401       .  A
C220        H227   1.083       .  S
C221        C222   1.413       .  A
C222        C223   1.411       .  A
C222        F229   1.357       .  S
C223        C224   1.406       .  A
C223        H228   1.083       .  S
C224        C225   1.406       .  A
C225        F226   1.357       .  S
C230        C231   1.403   1_554  A
C230        C235   1.401       .  A
C230        H237   1.083       .  S
C231        N718   1.437       .  S
C231        C751   1.403       .  A
C232        C750   1.403       .  A
C232        C752   1.399       .  A
C232        F239   1.357       .  S
C233        C234   1.406   1_556  A
C233        C751   1.398       .  A
C233        H238   1.083       .  S
C234        C235   1.407       .  A
C235        F236   1.357       .  S
C240        C241   1.401       .  A
C240        C245   1.392       .  A
C240        H247   1.083       .  S
C241        C242   1.405       .  A
C242        C243   1.399       .  A
C242        F249   1.357       .  S
C243        C244   1.405       .  A
C243        H248   1.083       .  S
C244        C245   1.407       .  A
C245        F246   1.358       .  S
C250        C251   1.403   1_556  A
C250        C774   1.403       .  A
C250        H257   1.083       .  S
C251        C252   1.414   1_554  A
C252        C253   1.407       .  A
C252        F259   1.357   1_556  S
C253        C773   1.404       .  A
C253        H258   1.077       .  S
C254        C255   1.411       .  A
C254        C772   1.403       .  A
C255        C769   1.403       .  A
C255        F256   1.357       .  S
C260        C261   1.406       .  A
C260        C265   1.402       .  A
C260        H267   1.083       .  S
C261        C262   1.410       .  A
C262        C263   1.402       .  A
C262        F269   1.356       .  S
C263        C264   1.402       .  A
C263        H268   1.083       .  S
C264        C265   1.406       .  A
C265        F266   1.358       .  S
C270        C275   1.403       .  A
C270        C790   1.405       .  A
C270        H277   1.083       .  S
C271        C272   1.406       .  A
C271        C789   1.406       .  A
C272        C792   1.407       .  A
C272        F279   1.356       .  S
C273        C274   1.412       .  A
C273        C791   1.406   1_554  A
C273        H278   1.083       .  S
C274        C275   1.408   1_554  A
C275        F276   1.357   1_556  S
C280        C281   1.404       .  A
C280        C285   1.399       .  A
C280        H287   1.083       .  S
C281        C282   1.409       .  A
C282        C283   1.400       .  A
C282        F289   1.357       .  S
C283        C284   1.402       .  A
C283        H288   1.082       .  S
C284        C285   1.404       .  A
C285        F286   1.357       .  S
C290        C810   1.401       .  A
C290        C814   1.400       .  A
C290        H297   1.082       .  S
C291        C715   1.482       .  S
C291        C292   1.407   1_556  A
C291        C809   1.401       .  A
C292        C293   1.404       .  A
C292        F299   1.358   1_554  S
C293        C294   1.407       .  A
C293        H298   1.083       .  S
C294        C295   1.409       .  A
C295        C809   1.398   1_554  A
C295        F296   1.357       .  S
C300        C301   1.413       .  A
C300        C305   1.401       .  A
C300        H307   1.083       .  S
C301        C653   1.493       .  S
C301        C302   1.405       .  A
C302        C303   1.403       .  A
C302        F828   1.356       .  S
C303        C304   1.410       .  A
C303        H308   1.083       .  S
C304        C305   1.401       .  A
C305        F306   1.357       .  S
F309        C821   1.356       .  S
C310        C315   1.404       .  A
C310        C830   1.403       .  A
C310        H317   1.082       .  S
C311        C312   1.413       .  A
C311        C829   1.404       .  A
C312        C313   1.409       .  A
C312        F319   1.357       .  S
C313        C833   1.406   1_554  A
C313        H318   1.082       .  S
C314        C315   1.413       .  A
C314        C832   1.406       .  A
C315        F316   1.357       .  S
C320        C321   1.405       .  A
C320        C325   1.398       .  A
C320        H327   1.083       .  S
C321        C322   1.411       .  A
C322        C323   1.406       .  A
C322        F329   1.357       .  S
C323        C324   1.404       .  A
C323        H328   1.083       .  S
C324        C325   1.405       .  A
C325        F326   1.358       .  S
C330        C331   1.407       .  A
C330        C335   1.402       .  A
C330        H337   1.083       .  S
C331        C332   1.413       .  A
C332        C333   1.410       .  A
C332        F339   1.357       .  S
C333        C334   1.405       .  A
C333        H338   1.083       .  S
C334        N652   1.448       .  S
C334        C335   1.406       .  A
C335        F855   1.356       .  S
F336        C854   1.357       .  S
C340        C341   1.400       .  A
C340        C345   1.400       .  A
C340        H347   1.083       .  S
C341        C342   1.402       .  A
C342        C343   1.398       .  A
C342        F349   1.358       .  S
C343        C344   1.407       .  A
C343        H348   1.083       .  S
C344        C345   1.410       .  A
C345        F346   1.357       .  S
C350        C351   1.407       .  A
C350        C355   1.396       .  A
C350        H357   1.083       .  S
C351        C352   1.411       .  A
C352        C872   1.401       .  A
C352        F359   1.357       .  S
C353        C871   1.403       .  A
C353        C873   1.402       .  A
C353        H358   1.083       .  S
C354        N645   1.434       .  S
C354        C355   1.400       .  A
C354        C872   1.400       .  A
C355        F356   1.357       .  S
C360        C361   1.406       .  A
C360        C365   1.408       .  A
C360        H367   1.083       .  S
C361        C362   1.405       .  A
C362        C363   1.406       .  A
C362        F369   1.357       .  S
C363        C364   1.410       .  A
C363        H368   1.083       .  S
C364        C365   1.410       .  A
C365        F366   1.357       .  S
C370        C371   1.400       .  A
C370        C375   1.400       .  A
C370        H377   1.083       .  S
C371        N638   1.438       .  S
C371        C372   1.403       .  A
C372        C373   1.402       .  A
C372        F898   1.356       .  S
C373        C374   1.407       .  A
C373        H378   1.083       .  S
C374        C375   1.412       .  A
C375        F376   1.357       .  S
F379        C891   1.356       .  S
C380        C381   1.398       .  A
C380        C385   1.394       .  A
C380        H387   1.083       .  S
C381        C382   1.400       .  A
C382        C383   1.391       .  A
C382        F389   1.358       .  S
C383        C384   1.403       .  A
C383        H388   1.083       .  S
C384        C385   1.409       .  A
C385        F386   1.358       .  S
C390        C391   1.405       .  A
C390        C395   1.404       .  A
C390        H397   1.082       .  S
C391        C392   1.405       .  A
C392        C393   1.405       .  A
C392        F399   1.356       .  S
C393        C394   1.409       .  A
C393        H398   1.083       .  S
C394        C395   1.409       .  A
C395        F396   1.357       .  S
C400        C401   1.399       .  A
C400        C405   1.398       .  A
C400        H407   1.083       .  S
C401        C402   1.403       .  A
C402        C403   1.398       .  A
C402        F409   1.357       .  S
C403        C404   1.406       .  A
C403        H408   1.082       .  S
C404        C405   1.409       .  A
C405        F406   1.357   1_554  S
C410        C411   1.403       .  A
C410        C415   1.403       .  A
C410        H417   1.081       .  S
C411        C412   1.408       .  A
C412        C413   1.399       .  A
C412        F419   1.358       .  S
C413        C414   1.406       .  A
C413        H418   1.072       .  S
C414        C415   1.415       .  A
C415        F416   1.357       .  S
C420        C421   1.403       .  A
C420        C425   1.402   1_556  A
C420        H427   1.083       .  S
C421        C422   1.406   1_556  A
C422        C423   1.400       .  A
C422        F948   1.356       .  S
C423        C424   1.403       .  A
C423        H428   1.083       .  S
C424        C425   1.409       .  A
C425        F426   1.357       .  S
F429        C941   1.356       .  S
C430        C431   1.407       .  A
C430        C435   1.401       .  A
C430        H437   1.083       .  S
C431        C432   1.409       .  A
C432        C433   1.397       .  A
C432        F439   1.358       .  S
C433        C434   1.400       .  A
C433        H438   1.083       .  S
C434        C435   1.402       .  A
C435        F436   1.357       .  S
C440        C441   1.405       .  A
C440        C445   1.402   1_554  A
C440        H447   1.083       .  S
C441        C442   1.410       .  A
C442        C443   1.392   1_554  A
C442        F449   1.357       .  S
C443        C444   1.398       .  A
C443        H967   1.084       .  S
C444        C583   1.473       .  S
C444        C445   1.406       .  A
C445        F446   1.357       .  S
H448        C962   1.084       .  S
C450        C451   1.409       .  A
C450        C455   1.406       .  A
C450        H457   1.083       .  S
C451        C452   1.407       .  A
C452        C453   1.397       .  A
C452        F459   1.357       .  S
C453        C454   1.404       .  A
C453        H458   1.083       .  S
C454        C455   1.405       .  A
C455        F456   1.355       .  S
C460        C461   1.399       .  A
C460        C465   1.391       .  A
C460        H467   1.084       .  S
C461        C462   1.407       .  A
C462        C982   1.399       .  A
C462        F988   1.357       .  S
C463        C981   1.398   1_554  A
C463        C983   1.400       .  A
C463        H468   1.083       .  S
C464        C465   1.405       .  A
C464        C982   1.400       .  A
C465        F466   1.358       .  S
F469        C981   1.357       .  S
C470        C471   1.403   1_554  A
C470        C475   1.406       .  A
C470        H996   1.078       .  S
C471        N527   1.448       .  S
C471        C472   1.407   1_556  A
C472        C473   1.399       .  A
C472        F479   1.357   1_554  S
C473        C474   1.405       .  A
C473        H478   1.083   1_565  S
C474        C475   1.412       .  A
C475        F476   1.357       .  S
H477        C989   1.079       .  S
C480        C481   1.403       .  A
C480        C485   1.396       .  A
C480        H487   1.083       .  S
C481        C482   1.410   1_565  A
C482        C483   1.389   1_545  A
C482        F489   1.357       .  S
C483        C484   1.396       .  A
C483        H488   1.084   1_565  S
C484        C485   1.404       .  A
C485        F486   1.358       .  S
C490        C491   1.403       .  A
C490        C495   1.400       .  A
C490        H497   1.083       .  S
C491        C492   1.405       .  A
C492        C493   1.401       .  A
C492        F499   1.358       .  S
C493        C494   1.405       .  A
C493        H498   1.083       .  S
C494        C495   1.406       .  A
C495        F496   1.357       .  S
C500        C501   1.404   1_554  A
C500        C505   1.400       .  A
C500        H507   1.083   1_554  S
C501        C502   1.400   1_556  A
C502        C503   1.393       .  A
C502        F509   1.358       .  S
C503        C504   1.407       .  A
C503        H508   1.083       .  S
C504        C505   1.407       .  A
C505        F506   1.357       .  S
C510        C511   1.406       .  A
C510        C515   1.401       .  A
C510        H517   1.083       .  S
C511        C512   1.413       .  A
C512        C513   1.410       .  A
C512        F519   1.357       .  S
C513        C514   1.403       .  A
C513        H518   1.082       .  S
C514        C515   1.407       .  A
C515        F516   1.357       .  S
N520        C521   1.359       .  A
N520       C1033   1.444       .  S
C521       C1010   1.473       .  S
C522        C523   1.369       .  A
C522        H525   1.083       .  S
C523        C524   1.380       .  A
C523        H526   1.082       .  S
C524       C1020   1.475       .  S
N527        C531   1.352       .  A
N527        C528   1.357       .  A
C528        C980   1.463       .  S
C528        C529   1.381       .  A
C529        C530   1.368       .  A
C529        H532   1.082       .  S
C530        C531   1.381       .  A
C530        H533   1.082       .  S
C531       C1003   1.463       .  S
N534        N535   1.318       .  A
N534        N540   1.318       .  A
N534       Mn563   2.200       .  S
N535        C542   1.352       .  A
N536        N538   1.314       .  A
N536        N537   1.324       .  A
N536       Mn552   2.210       .  S
N537        C543   1.356       .  A
N538        N539   1.316       .  A
N538       Mn563   2.185       .  S
N539        C543   1.349       .  A
N540        N541   1.324       .  A
N540       Mn552   2.228       .  S
N541        C542   1.357       .  A
C542        C950   1.485       .  S
C543        C943   1.474       .  S
N544        N550   1.317       .  A
N544        N545   1.314       .  A
N544       Mn574   2.177       .  S
N545        C553   1.347       .  A
N546        N547   1.326   1_545  A
N546        N548   1.316   1_545  A
N546       Mn552   2.214       .  S
N547        C554   1.356       .  A
N548        N549   1.322       .  A
N548       Mn574   2.221       .  S
N549        C554   1.356       .  A
N550        N551   1.326       .  A
N550       Mn552   2.237   1_565  S
N551        C553   1.361       .  A
Mn552      Cl576   2.563       .  S
C553       C1023   1.482       .  S
C554       C1030   1.494       .  S
N555        N556   1.316       .  A
N555        N561   1.314       .  A
N555       Mn563   2.191       .  S
N556        C564   1.350       .  A
N557        N559   1.313       .  A
N557        N558   1.321       .  A
N557       Mn575   2.196       .  S
N558        C565   1.352       .  A
N559        N560   1.323       .  A
N559       Mn563   2.212       .  S
N560        C565   1.358       .  A
N561        N562   1.323       .  A
N561       Mn575   2.206       .  S
N562        C564   1.357       .  A
Mn563      Cl576   2.535       .  S
C564        C960   1.479       .  S
C565        C970   1.488       .  S
N566        N567   1.319   1_545  A
N566        N572   1.315       .  A
N566       Mn574   2.195   1_545  S
N567        C577   1.354   1_565  A
N568        N569   1.321       .  A
N568        N570   1.314   1_545  A
N568       Mn575   2.201       .  S
N569        C578   1.355   1_545  A
N570        N571   1.326       .  A
N570       Mn574   2.226       .  S
N571        C578   1.358       .  A
N572        N573   1.316       .  A
N572       Mn575   2.184       .  S
N573        C577   1.349       .  A
Mn574      Cl576   2.540   1_565  S
Mn575      Cl576   2.555       .  S
C577       C1000   1.468   1_545  S
C578        C993   1.496       .  S
N579        C583   1.356       .  A
N579        C580   1.366       .  A
N579        C973   1.445       .  S
C580        C930   1.493       .  S
C580        C581   1.392       .  A
C582        H585   1.083       .  S
N586        C587   1.358       .  A
N586        C940   1.436       .  S
C587        C923   1.490       .  S
C588        C589   1.374       .  A
C588        H591   1.082       .  S
C589        C590   1.381       .  A
C589        H592   1.082       .  S
C590        C953   1.475       .  S
N593        N594   1.323       .  A
N593        N599   1.318       .  A
N593       Mn622   2.219       .  S
N594        C601   1.356       .  A
N595        N597   1.314       .  A
N595        N596   1.318       .  A
N595       Mn611   2.182       .  S
N596        C602   1.350       .  A
N597        N598   1.319       .  A
N597       Mn622   2.193       .  S
N598        C602   1.353       .  A
N599        N600   1.323       .  A
N599       Mn611   2.218       .  S
N600        C601   1.355       .  A
C601        C913   1.490       .  S
C602        C903   1.471       .  S
N603        N609   1.315       .  A
N603        N604   1.328       .  A
N603       Mn633   2.236       .  S
N604        C612   1.361       .  A
N605        N606   1.318       .  A
N605        N607   1.316       .  A
N605       Mn611   2.196       .  S
N606        C613   1.352       .  A
N607        N608   1.324       .  A
N607       Mn633   2.223       .  S
N608        C613   1.358       .  A
N609        N610   1.322       .  A
N609       Mn611   2.212       .  S
N610        C612   1.354       .  A
Mn611      Cl635   2.539       .  S
C612        C883   1.500       .  S
C613        C893   1.484   1_556  S
N614        N615   1.322       .  A
N614        N620   1.313       .  A
N614       Mn622   2.206   1_655  S
N615        C623   1.355       .  A
N616        N618   1.317       .  A
N616        N617   1.323       .  A
N616       Mn634   2.220       .  S
N617        C624   1.356       .  A
N618        N619   1.326       .  A
N618       Mn622   2.225   1_655  S
N619        C624   1.358       .  A
N620        N621   1.322       .  A
N620       Mn634   2.203       .  S
N621        C623   1.355       .  A
Mn622      Cl635   2.562       .  S
C623        C840   1.487       .  S
C624        C850   1.496   1_556  S
N625        N626   1.325       .  A
N625        N631   1.317       .  A
N625       Mn633   2.231   1_655  S
N626        C636   1.359       .  A
N627        N628   1.317       .  A
N627        N629   1.316       .  A
N627       Mn634   2.195       .  S
N628        C637   1.350       .  A
N629        N630   1.324       .  A
N629       Mn633   2.214   1_655  S
N630        C637   1.357       .  A
N631        N632   1.317       .  A
N631       Mn634   2.194       .  S
N632        C636   1.351       .  A
Mn633      Cl635   2.568       .  S
Mn634      Cl635   2.537   1_655  S
C636        C870   1.486   1_556  S
C637        C863   1.481       .  S
N638        C642   1.361       .  A
N638        C639   1.365       .  A
C639        C830   1.499       .  S
C639        C640   1.385       .  A
C640        C641   1.378       .  A
C640        H643   1.082       .  S
C641        C642   1.381       .  A
C641        H644   1.082       .  S
C642        C880   1.490       .  S
N645        C649   1.352       .  A
N645        C646   1.354       .  A
C646        C920   1.476       .  S
C646        C647   1.382       .  A
C647        C648   1.377       .  A
C647        H650   1.082       .  S
C648        C649   1.383       .  A
C648        H651   1.082       .  S
C649        C860   1.473       .  S
N652        C656   1.362       .  A
N652        C653   1.370       .  A
C653        C654   1.386       .  A
C654        C655   1.368       .  A
C654        H657   1.082       .  S
C655        C656   1.378       .  A
C655        H658   1.082       .  S
C656        C843   1.478       .  S
N659        C660   1.357       .  A
N659        C910   1.443       .  S
C660        C983   1.462       .  S
C661        C662   1.363       .  A
C661        H664   1.083       .  S
C662        C663   1.378       .  A
C662        H665   1.082       .  S
C663        C900   1.458       .  S
N666        N667   1.325       .  A
N666        N672   1.318       .  A
N666       Mn695   2.235       .  S
N667        C674   1.359       .  A
N668        N670   1.316       .  A
N668        N669   1.320       .  A
N668       Mn684   2.204       .  S
N669        C675   1.352       .  A
N670        N671   1.324       .  A
N670       Mn695   2.214       .  S
N671        C675   1.356       .  A
N672        N673   1.319       .  A
N672       Mn684   2.204       .  S
N673        C674   1.352       .  A
C674        C813   1.490       .  S
C675        C800   1.483       .  S
N676        N682   1.316       .  A
N676        N677   1.323       .  A
N676       Mn706   2.220       .  S
N677        C685   1.356       .  A
N678        N679   1.323       .  A
N678        N680   1.316       .  A
N678       Mn684   2.216       .  S
N679        C686   1.354       .  A
N680        N681   1.325       .  A
N680       Mn706   2.224       .  S
N681        C686   1.359       .  A
N682        N683   1.322       .  A
N682       Mn684   2.206       .  S
N683        C685   1.355       .  A
Mn684      Cl708   2.538       .  S
C685        C780   1.486       .  S
C686        C793   1.496       .  S
N687        N688   1.329       .  A
N687        N693   1.317       .  A
N687       Mn695   2.246       .  S
N688        C696   1.362       .  A
N689        N691   1.315       .  A
N689        N690   1.319       .  A
N689       Mn707   2.189       .  S
N690        C697   1.351       .  A
N691        N692   1.323       .  A
N691       Mn695   2.220       .  S
N692        C697   1.357       .  A
N693        N694   1.323       .  A
N693       Mn707   2.223       .  S
N694        C696   1.355       .  A
Mn695      Cl708   2.573       .  S
C696        C740   1.505       .  S
C697        C753   1.479       .  S
N698        N699   1.327       .  A
N698        N704   1.318       .  A
N698       Mn706   2.239       .  S
N699        C709   1.361       .  A
N700        N701   1.318       .  A
N700        N702   1.314       .  A
N700       Mn707   2.189       .  S
N701        C710   1.352       .  A
N702        N703   1.320       .  A
N702       Mn706   2.196       .  S
N703        C710   1.353       .  A
N704        N705   1.322       .  A
N704       Mn707   2.216       .  S
N705        C709   1.353       .  A
Mn706      Cl708   2.569       .  S
Mn707      Cl708   2.538       .  S
C709        C770   1.499       .  S
C710        C763   1.474       .  S
N711        C715   1.359       .  A
N711        C712   1.366       .  A
N711        C803   1.441       .  S
C712        C933   1.504       .  S
C712        C713   1.390       .  A
C714        H717   1.082       .  S
N718        C722   1.364       .  A
N718        C719   1.367       .  A
C719        C833   1.504       .  S
C719        C720   1.385       .  A
C720        C721   1.378       .  A
C720        H723   1.082       .  S
C721        C722   1.381       .  A
C721        H724   1.082       .  S
C722        C743   1.498       .  S
N725        C729   1.360       .  A
N725        C726   1.367       .  A
N725        C790   1.446       .  S
C726        C823   1.488       .  S
C726        C727   1.383       .  A
C727        C728   1.371       .  A
C727        H730   1.082       .  S
C728        C729   1.380       .  A
C728        H731   1.082       .  S
C729        C783   1.481       .  S
N732        C736   1.355       .  A
N732        C733   1.363       .  A
N732        C773   1.455       .  S
C733       C1013   1.475       .  S
C733        C734   1.384       .  A
C734        C735   1.370       .  A
C734        H737   1.083       .  S
C735        C736   1.379       .  A
C735        H738   1.083       .  S
C736        C760   1.469       .  S
C739        C740   1.409       .  A
C739        C744   1.404       .  A
C739        H746   1.083       .  S
C740        C741   1.413       .  A
C741        C742   1.414       .  A
C741        F748   1.357       .  S
C742        C743   1.407       .  A
C742        H747   1.083       .  S
C743        C744   1.406       .  A
C744        F745   1.358       .  S
C749        C750   1.403       .  A
C749        C754   1.401       .  A
C749        H756   1.083       .  S
C751        F758   1.357       .  S
C752        C753   1.406       .  A
C752        H757   1.083       .  S
C753        C754   1.407       .  A
C754        F755   1.357       .  S
C759        C760   1.401       .  A
C759        C764   1.393       .  A
C759        H766   1.084       .  S
C760        C761   1.402       .  A
C761        C762   1.397       .  A
C761        F768   1.357       .  S
C762        C763   1.406       .  A
C762        H767   1.083       .  S
C763        C764   1.407       .  A
C764        F765   1.358       .  S
C769        C770   1.404       .  A
C769        H776   1.083       .  S
C770        C771   1.415       .  A
C771        C772   1.409       .  A
C771        F778   1.357       .  S
C772        H777   1.080       .  S
C773        C774   1.414       .  A
C774        F775   1.357       .  S
C779        C780   1.405       .  A
C779        C784   1.400       .  A
C779        H786   1.083       .  S
C780        C781   1.410       .  A
C781        C782   1.403       .  A
C781        F788   1.357       .  S
C782        C783   1.403       .  A
C782        H787   1.083       .  S
C783        C784   1.405       .  A
C784        F785   1.357       .  S
C789        C794   1.403       .  A
C789        H796   1.083       .  S
C790        C791   1.403       .  A
C791        F798   1.357       .  S
C792        C793   1.411       .  A
C792        H797   1.083       .  S
C793        C794   1.408       .  A
C794        F795   1.357       .  S
C799        C800   1.405       .  A
C799        C804   1.402       .  A
C799        H806   1.083       .  S
C800        C801   1.408       .  A
C801        C802   1.399       .  A
C801        F808   1.356       .  S
C802        C803   1.402       .  A
C802        H807   1.081       .  S
C803        C804   1.405       .  A
C804        F805   1.357       .  S
C809        H816   1.081       .  S
C810        C811   1.406       .  A
C811        C812   1.404       .  A
C811        F818   1.357       .  S
C812        C813   1.406       .  A
C812        H817   1.083       .  S
C813        C814   1.412       .  A
C814        F815   1.357       .  S
C819        C820   1.412       .  A
C819        C824   1.402       .  A
C819        H826   1.083       .  S
C820        C821   1.404       .  A
C821        C822   1.404   1_554  A
C822        C823   1.411       .  A
C822        H827   1.083       .  S
C823        C824   1.401   1_556  A
C824        F825   1.357       .  S
C829        C834   1.406   1_554  A
C829        H836   1.082       .  S
C830        C831   1.413       .  A
C831        C832   1.406       .  A
C831        F838   1.357       .  S
C832        H837   1.082       .  S
C833        C834   1.413       .  A
C834        F835   1.357       .  S
C839        C840   1.406       .  A
C839        C844   1.400       .  A
C839        H846   1.083       .  S
C840        C841   1.411       .  A
C841        C842   1.403       .  A
C841        F848   1.357       .  S
C842        C843   1.402       .  A
C842        H847   1.083       .  S
C843        C844   1.404       .  A
C844        F845   1.357       .  S
C849        C850   1.407       .  A
C849        C854   1.402       .  A
C849        H856   1.083       .  S
C850        C851   1.413       .  A
C851        C852   1.409       .  A
C851        F858   1.357   1_554  S
C852        C853   1.404       .  A
C852        H857   1.083       .  S
C853        C854   1.406       .  A
C859        C860   1.402       .  A
C859        C864   1.403       .  A
C859        H866   1.083       .  S
C860        C861   1.401       .  A
C861        C862   1.393       .  A
C861        F868   1.358       .  S
C862        C863   1.406       .  A
C862        H867   1.083       .  S
C863        C864   1.409       .  A
C864        F865   1.357       .  S
C869        C870   1.409       .  A
C869        C874   1.397       .  A
C869        H876   1.083       .  S
C870        C871   1.410       .  A
C871        F878   1.357       .  S
C872        H877   1.083       .  S
C873        C874   1.399       .  A
C874        F875   1.357       .  S
C879        C880   1.405       .  A
C879        C884   1.408       .  A
C879        H886   1.083       .  S
C880        C881   1.404       .  A
C881        C882   1.405       .  A
C881        F888   1.357       .  S
C882        C883   1.411       .  A
C882        H887   1.083       .  S
C883        C884   1.411       .  A
C884        F885   1.357       .  S
C889        C890   1.399       .  A
C889        C894   1.397       .  A
C889        H896   1.083       .  S
C890        C891   1.403       .  A
C891        C892   1.401       .  A
C892        C893   1.407       .  A
C892        H897   1.083       .  S
C893        C894   1.412       .  A
C894        F895   1.357   1_554  S
C899        C900   1.398       .  A
C899        C904   1.393       .  A
C899        H906   1.084       .  S
C900        C901   1.401       .  A
C901        C902   1.393       .  A
C901        F908   1.358       .  S
C902        C903   1.404       .  A
C902        H907   1.083       .  S
C903        C904   1.408       .  A
C904        F905   1.357       .  S
C909        C910   1.404       .  A
C909        C914   1.403       .  A
C909        H916   1.083       .  S
C910        C911   1.403       .  A
C911        C912   1.403   1_554  A
C911        F918   1.356       .  S
C912        C913   1.408       .  A
C912        H917   1.083       .  S
C913        C914   1.410   1_556  A
C914        F915   1.357       .  S
C919        C920   1.401       .  A
C919        C924   1.401       .  A
C919        H926   1.083       .  S
C920        C921   1.403       .  A
C921        C922   1.396       .  A
C921        F928   1.358       .  S
C922        C923   1.406       .  A
C922        H927   1.080       .  S
C923        C924   1.410       .  A
C924        F925   1.357       .  S
C929        C930   1.403       .  A
C929        C934   1.401       .  A
C929        H936   1.081       .  S
C930        C931   1.409       .  A
C931        C932   1.400       .  A
C931        F938   1.358       .  S
C932        C933   1.406       .  A
C932        H937   1.079       .  S
C933        C934   1.414       .  A
C934        F935   1.357       .  S
C939        C940   1.399       .  A
C939        C944   1.394       .  A
C939        H946   1.081       .  S
C940        C941   1.404       .  A
C941        C942   1.400       .  A
C942        C943   1.404       .  A
C942        H947   1.083       .  S
C943        C944   1.407       .  A
C944        F945   1.356       .  S
C949        C950   1.408       .  A
C949        C954   1.404       .  A
C949        H956   1.083       .  S
C950        C951   1.410       .  A
C951        C952   1.396       .  A
C951        F958   1.357       .  S
C952        C953   1.400       .  A
C952        H957   1.084       .  S
C953        C954   1.403       .  A
C954        F955   1.357       .  S
C959        C960   1.404       .  A
C959        C964   1.399       .  A
C959        H966   1.083       .  S
C960        C961   1.410       .  A
C961        C962   1.394       .  A
C961        F968   1.356       .  S
C962        C963   1.399       .  A
C963        C964   1.405       .  A
C964        F965   1.356       .  S
C969        C970   1.411       .  A
C969        C974   1.405       .  A
C969        H976   1.083       .  S
C970        C971   1.406       .  A
C971        C972   1.397       .  A
C971        F978   1.357       .  S
C972        C973   1.408       .  A
C972        H977   1.083       .  S
C973        C974   1.404       .  A
C974        F975   1.355       .  S
C979        C980   1.399   1_554  A
C979        C984   1.392       .  A
C979        H986   1.084       .  S
C980        C981   1.406       .  A
C982        H987   1.083       .  S
C983        C984   1.404       .  A
C984        F985   1.358       .  S
C989        C990   1.406       .  A
C989        C994   1.410       .  A
C990        C991   1.408       .  A
C991        C992   1.398       .  A
C991        F998   1.357       .  S
C992        C993   1.405       .  A
C992        H997   1.083   1_565  S
C993        C994   1.413       .  A
C994        F995   1.357       .  S
C999       C1000   1.403       .  A
C999       C1004   1.393       .  A
C999       H1006   1.083       .  S
C1000      C1001   1.408   1_565  A
C1001      C1002   1.392   1_545  A
C1001      F1008   1.357       .  S
C1002      C1003   1.398       .  A
C1002      H1007   1.084   1_565  S
C1003      C1004   1.404       .  A
C1004      F1005   1.357       .  S
C1009      C1010   1.403       .  A
C1009      C1014   1.399       .  A
C1009      H1016   1.083       .  S
C1010      C1011   1.404       .  A
C1011      C1012   1.398       .  A
C1011      F1018   1.358       .  S
C1012      C1013   1.405       .  A
C1012      H1017   1.083       .  S
C1013      C1014   1.405       .  A
C1014      F1015   1.357       .  S
C1019      C1020   1.405       .  A
C1019      C1024   1.403       .  A
C1019      H1026   1.083       .  S
C1020      C1021   1.401       .  A
C1021      C1022   1.394       .  A
C1021      F1028   1.358       .  S
C1022      C1023   1.408       .  A
C1022      H1027   1.083       .  S
C1023      C1024   1.407       .  A
C1024      F1025   1.357       .  S
C1029      C1030   1.405       .  A
C1029      C1034   1.398       .  A
C1029      H1036   1.083       .  S
C1030      C1031   1.413       .  A
C1031      C1032   1.410       .  A
C1031      F1038   1.357       .  S
C1032      C1033   1.404       .  A
C1032      H1037   1.082       .  S
C1033      C1034   1.405       .  A
C1034      F1035   1.357       .  S
