geometry optimzed in LAMMPS
_audit_creation_date              2020-11-30 
_audit_creation_method            'lammps2cif' 
_symmetry_space_group_name_H-M    'P1' 
_symmetry_Int_Tables_number       1 
_symmetry_cell_setting            triclinic 
loop_ 
_symmetry_equiv_pos_as_xyz 
  x,y,z 
_cell_length_a                    31.567427243341285 
_cell_length_b                    31.806544761051153 
_cell_length_c                    30.980658873251983 
_cell_angle_alpha                 89.77403595041048 
_cell_angle_beta                  88.93540034098265 
_cell_angle_gamma                 89.4936548165799 
loop_ 
_atom_site_label 
_atom_site_type_symbol 
_atom_site_fract_x 
_atom_site_fract_y 
_atom_site_fract_z 
_atom_site_charge 
C1          C  0.36339856  0.64819320  0.63665043    -0.03100
C2          C  0.45444140  0.63132937  0.51112613     0.41840
N3          N  0.50136726  0.59534008  0.54301371     0.00730
C4          C  0.63801104  0.46377070  0.44345294    -0.07150
H5          H  0.51909854  0.49230592  0.35232035     0.06220
C6          C  0.41157972  0.46064423  0.45000575    -0.07500
Co7        Co  0.56723733  0.56726417  0.48410917     0.74180
N8          N  0.54443419  0.51973314  0.40925904    -0.26670
Co9        Co  0.54460457  0.47050425  0.45118882     0.74070
C10         C  0.42028702  0.46571274  0.40354387     0.41940
N11         N  0.43169226  0.50445514  0.54796178     0.00350
N12         N  0.47904881  0.46449290  0.43805946     0.00450
N13         N  0.65326903  0.53099247  0.45621161    -0.47520
H14         H  0.49557565  0.63907871  0.45005172     0.06210
N15         N  0.54554984  0.55826618  0.42385152     0.00740
N16         N  0.54819474  0.42297516  0.49664192     0.00480
C17         C  0.55351162  0.35891068  0.47773111     0.42080
N18         N  0.44851971  0.53011194  0.57570442    -0.26130
C19         C  0.63152282  0.56898614  0.53970498    -0.07050
N20         N  0.46381875  0.61167866  0.54781269    -0.47240
N21         N  0.57552390  0.39309484  0.48758415    -0.47460
C22         C  0.64027678  0.53183590  0.56534868     0.41860
N23         N  0.61459671  0.52258546  0.46929883     0.00730
N24         N  0.51748264  0.48108251  0.60329132    -0.26150
N25         N  0.51811778  0.60410953  0.50461878    -0.26650
N26         N  0.49662157  0.44983996  0.58594263     0.00360
H27         H  0.57079240  0.48243881  0.64525394     0.06250
H28         H  0.48189077  0.34888937  0.49141868     0.06290
N29         N  0.60501750  0.48346003  0.46150528    -0.26690
N30         N  0.44957144  0.46078484  0.46778515    -0.26310
N31         N  0.57512178  0.54983159  0.57312681     0.00730
C32         C  0.50969069  0.56073584  0.36749420     0.42130
C33         C  0.42073450  0.53796009  0.60737773    -0.07560
N34         N  0.51044508  0.40885191  0.50495114    -0.26310
H35         H  0.38206609  0.45634698  0.46760059     0.06270
N36         N  0.52468806  0.58465097  0.39935003    -0.47530
H37         H  0.42884651  0.55192473  0.63765281     0.06260
C38         C  0.54725713  0.41991004  0.61860202     0.41960
C39         C  0.49178821  0.62959739  0.48305851    -0.07060
Co40       Co  0.51173164  0.54046194  0.57676031     0.73820
N41         N  0.39220107  0.49660324  0.55796056    -0.47250
C42         C  0.66832296  0.49655030  0.43566487     0.42230
N43         N  0.60381677  0.52316603  0.58677977    -0.47240
Co44       Co  0.46974812  0.45569930  0.52696199     0.73890
C45         C  0.50967747  0.36843856  0.49246266    -0.07560
C46         C  0.52793576  0.51963626  0.37044822    -0.07130
N47         N  0.59048913  0.57398807  0.54251807    -0.26650
N48         N  0.46257939  0.46853681  0.39964129    -0.47420
H49         H  0.63638787  0.43456685  0.42695082     0.06230
C50         C  0.54689743  0.46478813  0.62888501    -0.07540
Cl51       Cl  0.52251287  0.50983697  0.50952154    -0.50540
C52         C  0.38495297  0.51142576  0.59812409     0.41990
H53         H  0.65080768  0.58165039  0.51371310     0.06200
N54         N  0.51276493  0.41301346  0.59569412    -0.47250
C55         C  0.68637228  0.32845909  0.64714663    -0.03100
C56         C  0.35860046  0.32668600  0.32822710    -0.03100
C57         C  0.68472793  0.62992966  0.33191219    -0.03100
C58         C  0.36510741  0.63842663  0.32161076    -0.03100
C59         C  0.66162718  0.32776473  0.33338518    -0.03100
C60         C  0.36906563  0.34335253  0.63337175    -0.03100
C61         C  0.69874763  0.63563636  0.65346619    -0.03100
C62         C  0.27856316  0.20662385  0.97839253    -0.00050
C63         C  0.25097377  0.24112012  0.97712548    -0.00050
C64         C  0.30784422  0.97695497  0.22027362    -0.00050
C65         C  0.27223101  0.98267077  0.24778580    -0.00050
C66         C  0.02634110  0.24765298  0.22438148    -0.00050
C67         C  0.02885219  0.21120099  0.24993937    -0.00050
C68         C  0.51395127  0.25595899  0.23747583    -0.00050
C69         C  0.51249529  0.21919300  0.21327322    -0.00050
C70         C  0.29262956  0.24837245  0.48291445    -0.00050
C71         C  0.26317413  0.21602531  0.48461614    -0.00050
C72         C  0.29255402  0.48391233  0.24247067    -0.00050
C73         C  0.26120884  0.48276658  0.21139607    -0.00050
C74         C  0.29315981  0.73355898  0.97137737    -0.00050
C75         C  0.25836285  0.70645938  0.97449783    -0.00050
C76         C  0.78209201  0.23650584  0.98977505    -0.00050
C77         C  0.74336138  0.21488556  0.98995367    -0.00050
C78         C  0.02268402  0.24598908  0.75380897    -0.00050
C79         C  0.02435632  0.21071104  0.72794094    -0.00050
C80         C  0.76756396  0.47711648  0.26257208    -0.00050
C81         C  0.79931416  0.47698550  0.22970307    -0.00050
C82         C  0.24619478  0.48653289  0.74230752    -0.00050
C83         C  0.28045728  0.48569952  0.71212050    -0.00050
C84         C  0.86320964  0.63590945  0.82598290    -0.03100
C85         C  0.02843698  0.37951370  0.89394476     0.41840
N86         N  0.03376748  0.44248306  0.91208309     0.00730
C87         C  0.12161997  0.51481896  0.09661522    -0.07150
H88         H  0.98857908  0.41250240  0.10803246     0.06220
C89         C  0.90146089  0.50276598  0.05503017    -0.07500
Co90       Co  0.08408952  0.45792320  0.98766094     0.74180
N91         N  0.03809838  0.43480600  0.06689387    -0.26670
Co92       Co  0.02926015  0.49883117  0.06998705     0.74070
C93         C  0.90281411  0.47916740  0.09572098     0.41940
N94         N  0.93453195  0.50739600  0.95572500     0.00350
N95         N  0.96567589  0.49148323  0.07222305     0.00450
N96         N  0.15420323  0.49079706  0.03746230    -0.47520
H97         H  0.06921881  0.35636830  0.95000134     0.06210
N98         N  0.05704903  0.41861139  0.03269709     0.00740
N99         N  0.02237310  0.56196463  0.06496622     0.00480
C100        C  0.05426263  0.61761143  0.04693225     0.42080
N101        N  0.95523324  0.48927061  0.92373678    -0.26130
C102        C  0.14571893  0.49501326  0.92979997    -0.07050
N103        N  0.01874050  0.41854791  0.88255957    -0.47240
N104        N  0.05748231  0.58214431  0.06912924    -0.47460
C105        C  0.14193844  0.49447576  0.88297998     0.41860
N106        N  0.11329468  0.49293973  0.03220948     0.00730
N107        N  0.00294289  0.56199337  0.91308880    -0.26150
N108        N  0.05619242  0.42279439  0.94076621    -0.26650
N109        N  0.98578123  0.58241269  0.94530390     0.00360
H110        H  0.04063433  0.57722337  0.85952478     0.06250
H111        H  0.99938077  0.64537458  0.01128930     0.06290
N112        N  0.09318402  0.50626911  0.06650870    -0.26690
N113        N  0.94119136  0.51130992  0.04534675    -0.26310
N114        N  0.08234316  0.51279864  0.91193909     0.00730
C115        C  0.00806255  0.37489819  0.04932872     0.42130
C116        C  0.92736054  0.46859539  0.90039027    -0.07560
N117        N  0.99634304  0.58241791  0.03925520    -0.26310
H118        H  0.87459474  0.51585244  0.03828916     0.06270
N119        N  0.03961670  0.38284590  0.02124659    -0.47530
H120        H  0.93517073  0.45258368  0.87050147     0.06260
C121        C  0.01857357  0.62809873  0.90668070     0.41960
C122        C  0.05456473  0.38159827  0.93202375    -0.07060
Co123      Co  0.01832060  0.50167093  0.91449794     0.73820
N124        N  0.89383233  0.50017491  0.95521525    -0.47250
C125        C  0.16003256  0.49312315  0.08009024     0.42230
N126        N  0.10371849  0.51180097  0.87549572    -0.47240
Co127      Co  0.96269495  0.54763368  0.99695462     0.73890
C128        C  0.01223488  0.62081281  0.03103884    -0.07560
C129        C  0.01109866  0.40677737  0.08259324    -0.07130
N130        N  0.10616565  0.49918081  0.94333949    -0.26650
N131        N  0.94413058  0.47066890  0.10178630    -0.47420
H132        H  0.11349661  0.52199196  0.12988895     0.06230
C133        C  0.01922436  0.58795294  0.88477966    -0.07540
Cl134      Cl  0.02338128  0.50168988  0.99232967    -0.50540
C135        C  0.88554850  0.48463599  0.91609667     0.41990
H136        H  0.16854166  0.47838782  0.94911094     0.06200
N137        N  0.99428168  0.62288822  0.94244741    -0.47250
C138        C  0.87527091  0.32288815  0.12915702    -0.03100
C139        C  0.17730555  0.33186617  0.82628695    -0.03100
C140        C  0.16723135  0.64848527  0.81634672    -0.03100
C141        C  0.87508794  0.31211974  0.83395164    -0.03100
C142        C  0.86876352  0.63012695  0.15098582    -0.03100
C143        C  0.77218945  0.47507538  0.72446782    -0.00050
C144        C  0.80632724  0.47544460  0.75196226    -0.00050
C145        C  0.18149203  0.64467697  0.14318356    -0.03100
C146        C  0.17830921  0.32758131  0.13705247    -0.03100
C147        C  0.28817299  0.97966613  0.74115913    -0.00050
C148        C  0.25413349  0.98178765  0.71313861    -0.00050
C149        C  0.53441980  0.73974727  0.21010032    -0.00050
C150        C  0.53031365  0.70906427  0.24291147    -0.00050
C151        C  0.52232707  0.25102847  0.71415366    -0.00050
C152        C  0.52061554  0.22133600  0.74793082    -0.00050
C153        C  0.67284509  0.13283768  0.83323105    -0.03100
C154        C  0.52831750  0.08046839  0.87220630     0.41840
N155        N  0.51404470  0.02273253  0.90462523     0.00730
C156        C  0.42118710  0.98612875  0.09234567    -0.07150
H157        H  0.56117862  0.08532489  0.10231016     0.06220
C158        C  0.63598002  0.96506817  0.05067421    -0.07500
Co159      Co  0.46489860  0.04002544  0.98232295     0.74180
N160        N  0.52370022  0.05897857  0.05278331    -0.26670
Co161      Co  0.51256762  0.99900751  0.07108646     0.74070
C162        C  0.63826244  0.98766723  0.09124971     0.41940
N163        N  0.59293110  0.95119711  0.94782692     0.00350
N164        N  0.57449270  0.98715500  0.07165347     0.00450
N165        N  0.39135629  0.00701885  0.03154392    -0.47520
H166        H  0.50802793  0.11815868  0.93263529     0.06210
N167        N  0.50601393  0.07490241  0.01855434     0.00740
N168        N  0.50558658  0.93732250  0.08403776     0.00480
C169        C  0.50808618  0.87842260  0.11746759     0.42080
N170        N  0.56980287  0.95513776  0.91366812    -0.26130
C171        C  0.38548207  0.99529529  0.94089168    -0.07050
N172        N  0.53266036  0.03831215  0.87002190    -0.47240
N173        N  0.49533718  0.91893362  0.12098555    -0.47460
C174        C  0.38201614  0.95206489  0.92503338     0.41860
N175        N  0.42922844  0.02368652  0.03548134     0.00730
N176        N  0.50851973  0.89841761  0.93488640    -0.26150
N177        N  0.50181671  0.05207223  0.93132662    -0.26650
N178        N  0.52427825  0.88734142  0.97184959     0.00360
H179        H  0.51414762  0.86958690  0.87305589     0.06250
H180        H  0.53669868  0.84699798  0.05657410     0.06290
N181        N  0.44824558  0.00954911  0.06994927    -0.26690
N182        N  0.59478546  0.96549057  0.04211797    -0.26310
N183        N  0.44665463  0.96671256  0.93013079     0.00730
C184        C  0.52364764  0.12752684  0.05568216     0.42130
C185        C  0.59247203  0.96446044  0.87918872    -0.07560
N186        N  0.52409565  0.91147513  0.05677748    -0.26310
H187        H  0.66070104  0.94943494  0.03214274     0.06270
N188        N  0.51240040  0.11557223  0.01565564    -0.47530
H189        H  0.57900475  0.97278520  0.84847982     0.06260
C190        C  0.53836115  0.83456220  0.93245731     0.41960
C191        C  0.51547717  0.08860117  0.91710448    -0.07060
Co192      Co  0.50841452  0.96062188  0.91963567     0.73820
N193        N  0.63246821  0.96280432  0.93905354    -0.47250
C194        C  0.38528030  0.98029586  0.06464786     0.42230
N195        N  0.42120875  0.93689866  0.91999220    -0.47240
Co196      Co  0.56035427  0.92872941  0.00434626     0.73890
C197        C  0.52139066  0.87346896  0.07219788    -0.07560
C198        C  0.54381222  0.08947091  0.07294386    -0.07130
N199        N  0.42755693  0.00029205  0.94572440    -0.26650
N200        N  0.59867441  0.99954079  0.10223064    -0.47420
H201        H  0.43158406  0.96371959  0.11572800     0.06230
C202        C  0.51460956  0.86629438  0.90779285    -0.07540
Cl203      Cl  0.51140343  0.98181711  0.99464041    -0.50540
C204        C  0.63421853  0.97104598  0.89556749     0.41990
H205        H  0.36070687  0.01617757  0.95273422     0.06200
N206        N  0.53734446  0.84813888  0.97292886    -0.47250
C207        C  0.67442944  0.83466086  0.13705069    -0.03100
C208        C  0.36388321  0.82282960  0.82126537    -0.03100
C209        C  0.37113239  0.13100339  0.82211615    -0.03100
C210        C  0.68514462  0.82739936  0.82548311    -0.03100
C211        C  0.37395318  0.82106205  0.12430487    -0.03100
C212        C  0.52753556  0.70720787  0.72290492    -0.00050
C213        C  0.52907487  0.74489331  0.74795571    -0.00050
C214        C  0.36442102  0.13958654  0.13102409    -0.03100
C215        C  0.67603718  0.13874376  0.15319874    -0.03100
C216        C  0.02373253  0.75498700  0.24727091    -0.00050
C217        C  0.02628228  0.71853157  0.22201237    -0.00050
C218        C  0.75773518  0.98960147  0.21165289    -0.00050
C219        C  0.79298583  0.98762128  0.23830544    -0.00050
C220        C  0.78431530  0.21814538  0.47783934    -0.00050
C221        C  0.74745373  0.24244923  0.48168286    -0.00050
C222        C  0.29534060  0.72929731  0.48222822    -0.00050
C223        C  0.26384514  0.76035674  0.48090209    -0.00050
C224        C  0.86775625  0.14523478  0.31458729    -0.03100
C225        C  0.00672823  0.12809067  0.40778294     0.41840
N226        N  0.02231632  0.06555414  0.42084194     0.00730
C227        C  0.91824574  0.93183122  0.53008409    -0.07150
H228        H  0.03651880  0.03789934  0.62670744     0.06220
C229        C  0.12498864  0.97614985  0.53169579    -0.07500
Co230      Co  0.95907763  0.03980719  0.48727662     0.74180
N231        N  0.00282792  0.02740067  0.56759640    -0.26670
Co232      Co  0.00178986  0.96318730  0.55105946     0.74070
C233        C  0.11881141  0.99256574  0.57476446     0.41940
N234        N  0.09935373  0.97372328  0.43177982     0.00350
N235        N  0.06396375  0.96084842  0.55721901     0.00450
N236        N  0.88027441  0.98847435  0.51356775    -0.47520
H237        H  0.98158858  0.14064243  0.47460689     0.06210
N238        N  0.98994128  0.05424580  0.53876305     0.00740
N239        N  0.00446331  0.90087298  0.53381320     0.00480
C240        C  0.02353936  0.83682876  0.54316481     0.42080
N241        N  0.08119701  0.00113637  0.40639945    -0.26130
C242        C  0.89056667  0.01126776  0.42593771    -0.07050
N243        N  0.03228553  0.09652763  0.39475019    -0.47240
N244        N  0.99932585  0.86837460  0.55996647    -0.47460
C245        C  0.89214535  0.98244383  0.39080566     0.41860
N246        N  0.92014996  0.99815233  0.52191880     0.00730
N247        N  0.01510216  0.94384543  0.38739895    -0.26150
N248        N  0.00099081  0.07880904  0.45472364    -0.26650
N249        N  0.03033355  0.91644025  0.41456880     0.00360
H250        H  0.98605334  0.93864178  0.32625646     0.06250
H251        H  0.05789957  0.83524407  0.47811780     0.06290
N252        N  0.94063937  0.96550857  0.53684619    -0.26690
N253        N  0.08894984  0.95611105  0.52318316    -0.26310
N254        N  0.95352196  0.00883555  0.39856754     0.00730
C255        C  0.01904219  0.09513629  0.58359709     0.42130
C256        C  0.10829349  0.03102874  0.39609405    -0.07560
N257        N  0.02708169  0.89080757  0.49971734    -0.26310
H258        H  0.15277685  0.98033200  0.51181544     0.06270
N259        N  0.00171192  0.09270894  0.54504815    -0.47530
H260        H  0.10072448  0.05919597  0.37843146     0.06260
C261        C  0.01074387  0.87957267  0.36199400     0.41960
C262        C  0.00009928  0.12078199  0.45329422    -0.07060
Co263      Co  0.01807629  0.00524519  0.40135553     0.73820
N264        N  0.13871079  0.98363343  0.44045395    -0.47250
C265        C  0.87705383  0.94622704  0.51737464     0.42230
N266        N  0.93099386  0.98606006  0.37252675    -0.47240
Co267      Co  0.06300015  0.93307587  0.46690030     0.73890
C268        C  0.03445419  0.84975245  0.49939680    -0.07560
C269        C  0.02135760  0.05035394  0.59835745    -0.07130
N270        N  0.93084851  0.02168111  0.43174038    -0.26650
N271        N  0.08126030  0.98006128  0.58922667    -0.47420
H272        H  0.92888881  0.90019587  0.53548243     0.06230
C273        C  0.99862645  0.92354253  0.35453869    -0.07540
Cl274      Cl  0.01037311  0.98504276  0.47657048    -0.50540
C275        C  0.14498806  0.02082561  0.42145288     0.41990
H276        H  0.86406502  0.01682921  0.44749765     0.06200
N277        N  0.02340467  0.87784420  0.40310076    -0.47250
C278        C  0.86366752  0.83332389  0.33146926    -0.03100
C279        C  0.17432645  0.83515556  0.32347985    -0.03100
C280        C  0.17585599  0.82392884  0.63645983    -0.03100
C281        C  0.87053829  0.14886542  0.64053144    -0.03100
C282        C  0.85711648  0.83790073  0.64229799    -0.03100
C283        C  0.76299575  0.71378230  0.48968936    -0.00050
C284        C  0.79025416  0.74841454  0.48725994    -0.00050
C285        C  0.19281866  0.13511899  0.32318599    -0.03100
C286        C  0.17992633  0.14154759  0.63949369    -0.03100
C287        C  0.01894179  0.71423049  0.72992849    -0.00050
C288        C  0.01794922  0.74889192  0.70104624    -0.00050
C289        C  0.79717087  0.99384533  0.73061397    -0.00050
C290        C  0.76651019  0.99562640  0.76410908    -0.00050
C291        C  0.79770420  0.72034957  0.98692420    -0.00050
C292        C  0.76991982  0.75580582  0.98426969    -0.00050
C293        C  0.89977580  0.81669680  0.66067082    -0.06740
C294        C  0.93361020  0.80672532  0.63169697    -0.17870
C295        C  0.96902940  0.78231344  0.64378890     0.10460
C296        C  0.97773413  0.77328707  0.68753547    -0.06670
C297        C  0.94742160  0.78823739  0.71785008    -0.17900
C298        C  0.90742711  0.80478052  0.70508910     0.10490
S299        S  0.99614476  0.75569847  0.60088308    -0.32870
S300        S  0.86761378  0.80555595  0.74768840    -0.32870
H301        H  0.83473029  0.79300028  0.72101099     0.28500
H302        H  0.97570696  0.71758762  0.61061931     0.28490
H303        H  0.93049578  0.81297865  0.59776925     0.19080
H304        H  0.95280356  0.78237123  0.75179002     0.19090
C305        C  0.83548603  0.86724622  0.67919264    -0.06740
C306        C  0.86317733  0.89331285  0.70297318    -0.17870
C307        C  0.85194925  0.93352045  0.71871544     0.10460
C308        C  0.81084586  0.95031562  0.71272564    -0.06670
C309        C  0.78122585  0.92254415  0.69442312    -0.17900
C310        C  0.79228850  0.88092351  0.68090665     0.10490
S311        S  0.89323035  0.96222968  0.74460855    -0.32870
S312        S  0.74911365  0.84444891  0.67841035    -0.32870
H313        H  0.77366285  0.80808585  0.68499950     0.28500
H314        H  0.88782608  0.99724695  0.71822337     0.28490
H315        H  0.89636947  0.88520414  0.70475995     0.19080
H316        H  0.74838129  0.93240154  0.69300391     0.19090
C317        C  0.82769837  0.80428247  0.61638678    -0.06740
C318        C  0.79321159  0.82042693  0.59155546    -0.17870
C319        C  0.78148525  0.80456205  0.55031419     0.10460
C320        C  0.80326696  0.76971692  0.53076935    -0.06670
C321        C  0.83342538  0.75019337  0.55759979    -0.17900
C322        C  0.84386425  0.76498913  0.59947893     0.10490
S323        S  0.74126172  0.83465968  0.52313256    -0.32870
S324        S  0.87696673  0.72984258  0.62936861    -0.32870
H325        H  0.85887989  0.74341382  0.66831806     0.28500
H326        H  0.75387581  0.82424497  0.48121376     0.28490
H327        H  0.78076873  0.85122602  0.59937160     0.19080
H328        H  0.84864434  0.72162698  0.54661150     0.19090
C329        C  0.81528260  0.03429450  0.70805954    -0.06740
C330        C  0.82367458  0.03424569  0.66322693    -0.17870
C331        C  0.84196383  0.06928736  0.64107833     0.10460
C332        C  0.84631516  0.10958077  0.66208327    -0.06670
C333        C  0.82989486  0.11072891  0.70460843    -0.17900
C334        C  0.82464886  0.07315901  0.72879931     0.10490
S335        S  0.85916782  0.06060424  0.58586689    -0.32870
S336        S  0.84597622  0.07553669  0.78202694    -0.32870
H337        H  0.85220426  0.03211214  0.78634864     0.28500
H338        H  0.82215111  0.03933604  0.57457103     0.28490
H339        H  0.81814088  0.00571653  0.64567622     0.19080
H340        H  0.82820366  0.14044523  0.72144202     0.19090
C341        C  0.14778449  0.79529227  0.66900562    -0.06740
C342        C  0.13278749  0.75569396  0.65467509    -0.17870
C343        C  0.09043072  0.74246557  0.65942415     0.10460
C344        C  0.06044075  0.76653638  0.68394118    -0.06670
C345        C  0.07614802  0.80308922  0.70329057    -0.17900
C346        C  0.11974060  0.81399245  0.70061226     0.10490
S347        S  0.07793731  0.69494740  0.63076472    -0.32870
S348        S  0.13791091  0.84553303  0.74505367    -0.32870
H349        H  0.18137030  0.83747818  0.73802280     0.28500
H350        H  0.03598290  0.69116695  0.64504961     0.28490
H351        H  0.15136542  0.73683265  0.63302048     0.19080
H352        H  0.05584880  0.81944496  0.72642159     0.19090
C353        C  0.83769245  0.79636579  0.35658470    -0.06740
C354        C  0.86246898  0.77058674  0.38452627    -0.17870
C355        C  0.84960533  0.75885918  0.42726009     0.10460
C356        C  0.80713426  0.76475093  0.44229857    -0.06670
C357        C  0.77951603  0.78230195  0.41120120    -0.17900
C358        C  0.79389638  0.79831078  0.36994338     0.10490
S359        S  0.88978751  0.73563996  0.46062096    -0.32870
S360        S  0.75535675  0.82153974  0.33512151    -0.32870
H361        H  0.71927718  0.81414358  0.36124918     0.28500
H362        H  0.86355888  0.70473366  0.47865513     0.28490
H363        H  0.89471845  0.76341531  0.37509417     0.19080
H364        H  0.74618024  0.78423137  0.41969491     0.19090
C365        C  0.12991478  0.03365201  0.58753266    -0.06740
C366        C  0.12680775  0.04039465  0.63153293    -0.17870
C367        C  0.12775655  0.08064332  0.64658638     0.10460
C368        C  0.14886034  0.11097572  0.61937975    -0.06670
C369        C  0.14464832  0.10614038  0.57467737    -0.17900
C370        C  0.12945490  0.06848676  0.55925867     0.10490
S371        S  0.10948777  0.08825788  0.70166501    -0.32870
S372        S  0.10128931  0.06979541  0.50933558    -0.32870
H373        H  0.07173374  0.03905294  0.51998783     0.28500
H374        H  0.08312631  0.05281568  0.70399588     0.28490
H375        H  0.12001829  0.01463971  0.65361320     0.19080
H376        H  0.15380325  0.13049542  0.55197269     0.19090
C377        C  0.18057824  0.04865869  0.42863163    -0.06740
C378        C  0.16808604  0.09054816  0.43333075    -0.17870
C379        C  0.15872800  0.11372350  0.39637528     0.10460
C380        C  0.17823368  0.10097395  0.35629520    -0.06670
C381        C  0.19838277  0.06071398  0.35610260    -0.17900
C382        C  0.20764708  0.04048392  0.39479995     0.10490
S383        S  0.12257808  0.15783761  0.40169534    -0.32870
S384        S  0.23715719  0.99263460  0.39636341    -0.32870
H385        H  0.20853503  0.97376630  0.36851559     0.28500
H386        H  0.11011889  0.15033037  0.44486721     0.28490
H387        H  0.16114767  0.10325851  0.46473956     0.19080
H388        H  0.20731014  0.04475503  0.32717632     0.19090
C389        C  0.84211686  0.92372483  0.53833147    -0.06740
C390        C  0.83846818  0.93634518  0.58136421    -0.17870
C391        C  0.86362689  0.91443077  0.61082534     0.10460
C392        C  0.86970412  0.87034929  0.60549785    -0.06670
C393        C  0.86860738  0.85661308  0.56213841    -0.17900
C394        C  0.84738498  0.88055314  0.53124744     0.10490
S395        S  0.90595689  0.94513484  0.63299617    -0.32870
S396        S  0.84040287  0.85956502  0.47891055    -0.32870
H397        H  0.86761818  0.82482465  0.48360089     0.28500
H398        H  0.93344058  0.91064431  0.63942658     0.28490
H399        H  0.83457431  0.96957542  0.58663456     0.19080
H400        H  0.87760604  0.82488875  0.55387771     0.19090
C401        C  0.00145157  0.13015577  0.60916399    -0.06740
C402        C  0.98435877  0.11501448  0.64712446    -0.17870
C403        C  0.94118823  0.10617847  0.64839784     0.10460
C404        C  0.91241391  0.12992637  0.62108244    -0.06670
C405        C  0.93165744  0.15326688  0.58730251    -0.17900
C406        C  0.97566882  0.15851134  0.58556549     0.10490
S407        S  0.92639938  0.06750359  0.68861035    -0.32870
S408        S  0.99706932  0.19272327  0.54432781    -0.32870
H409        H  0.03280006  0.16776612  0.53455995     0.28500
H410        H  0.96486475  0.04476535  0.68839844     0.28490
H411        H  0.00542468  0.09928808  0.66936443     0.19080
H412        H  0.91267895  0.17219099  0.56589085     0.19090
C413        C  0.06414327  0.82980286  0.56454474    -0.06740
C414        C  0.08401126  0.86610965  0.58061851    -0.17870
C415        C  0.12652709  0.86581658  0.59030776     0.10460
C416        C  0.14445044  0.82844443  0.59927591    -0.06670
C417        C  0.13024361  0.79402379  0.57388507    -0.17900
C418        C  0.09008879  0.79450247  0.55616442     0.10490
S419        S  0.16178314  0.90668613  0.57554940    -0.32870
S420        S  0.07558843  0.75024675  0.52319967    -0.32870
H421        H  0.03396654  0.76251048  0.51384370     0.28500
H422        H  0.16860697  0.89009891  0.53389458     0.28490
H423        H  0.06697294  0.89467560  0.58477935     0.19080
H424        H  0.14827181  0.76550340  0.56995965     0.19090
C425        C  0.04471654  0.86237631  0.33529933    -0.06740
C426        C  0.07133484  0.89211781  0.31524042    -0.17870
C427        C  0.11442773  0.89167948  0.32322276     0.10460
C428        C  0.13264346  0.85445129  0.34046435    -0.06670
C429        C  0.10454758  0.82370699  0.35812226    -0.17900
C430        C  0.06199063  0.82488354  0.35101985     0.10490
S431        S  0.14263179  0.94039881  0.31582809    -0.32870
S432        S  0.02935424  0.78247084  0.37148859    -0.32870
H433        H  0.06199263  0.75327339  0.37960556     0.28500
H434        H  0.10728911  0.96725439  0.31159412     0.28490
H435        H  0.05777310  0.91977258  0.30027939     0.19080
H436        H  0.11670832  0.79489151  0.37177827     0.19090
C437        C  0.86822635  0.85952590  0.37374587    -0.06740
C438        C  0.83220388  0.88524480  0.38568538    -0.17870
C439        C  0.83804694  0.92692400  0.39739741     0.10460
C440        C  0.87950050  0.93989660  0.40212077    -0.06670
C441        C  0.91123233  0.90951084  0.40964391    -0.17900
C442        C  0.90623212  0.86866212  0.39466138     0.10490
S443        S  0.79476344  0.96435528  0.39663121    -0.32870
S444        S  0.93988476  0.82881234  0.41698584    -0.32870
H445        H  0.94659814  0.80777884  0.37826151     0.28500
H446        H  0.76219734  0.93460795  0.39401528     0.28490
H447        H  0.80109758  0.87773357  0.37515983     0.19080
H448        H  0.94079451  0.91851450  0.42388903     0.19090
C449        C  0.96660824  0.12407617  0.38351973    -0.06740
C450        C  0.97300164  0.12099697  0.33871105    -0.17870
C451        C  0.94036410  0.10848484  0.31291952     0.10460
C452        C  0.89962376  0.11144562  0.33048168    -0.06670
C453        C  0.89592703  0.09536174  0.37192909    -0.17900
C454        C  0.92716338  0.10693700  0.40116253     0.10490
S455        S  0.95111328  0.07319570  0.26895053    -0.32870
S456        S  0.91032428  0.10618355  0.45850607    -0.32870
H457        H  0.86965080  0.08947072  0.45419046     0.28500
H458        H  0.98472638  0.05250416  0.28973883     0.28490
H459        H  0.00438401  0.12360500  0.32494951     0.19080
H460        H  0.86481043  0.08645954  0.38367281     0.19090
C461        C  0.24283444  0.77727605  0.43869149    -0.06740
C462        C  0.20137414  0.79303533  0.44280940    -0.17870
C463        C  0.18232568  0.81710322  0.41019948     0.10460
C464        C  0.19613248  0.81310820  0.36495436    -0.06670
C465        C  0.23630138  0.79363035  0.36000712    -0.17900
C466        C  0.26146001  0.78262994  0.39620486     0.10490
S467        S  0.14848084  0.85793595  0.43408684    -0.32870
S468        S  0.31650750  0.79282044  0.38681048    -0.32870
H469        H  0.32267445  0.80856724  0.42831892     0.28500
H470        H  0.16197107  0.89101450  0.40724058     0.28490
H471        H  0.18578597  0.79256287  0.47423355     0.19080
H472        H  0.25129733  0.79461714  0.32827110     0.19090
C473        C  0.21417528  0.80604948  0.60755020    -0.06740
C474        C  0.23324470  0.83344283  0.57627091    -0.17870
C475        C  0.24978806  0.81938212  0.53636225     0.10460
C476        C  0.24633526  0.77679717  0.52470543    -0.06670
C477        C  0.23046404  0.74931191  0.55750998    -0.17900
C478        C  0.22178900  0.76332961  0.60003810     0.10490
S479        S  0.27431960  0.85752443  0.50131688    -0.32870
S480        S  0.23018700  0.72818891  0.64432815    -0.32870
H481        H  0.23496087  0.76034813  0.67487970     0.28500
H482        H  0.31162738  0.83337562  0.49690110     0.28490
H483        H  0.23434870  0.86673248  0.58210121     0.19080
H484        H  0.22714956  0.71636213  0.55139595     0.19090
C485        C  0.80309752  0.20431796  0.43298872    -0.06740
C486        C  0.82912233  0.16875657  0.43217366    -0.17870
C487        C  0.86021830  0.16740573  0.39964159     0.10460
C488        C  0.84643616  0.17069546  0.35579520    -0.06670
C489        C  0.81541509  0.20325985  0.35268910    -0.17900
C490        C  0.80162078  0.22551233  0.39118564     0.10490
S491        S  0.90274624  0.20045830  0.41898078    -0.32870
S492        S  0.80479950  0.28174094  0.38600006    -0.32870
H493        H  0.81275795  0.28904650  0.42978431     0.28500
H494        H  0.93205625  0.19400394  0.38601585     0.28490
H495        H  0.83546603  0.15279498  0.46206143     0.19080
H496        H  0.80791726  0.21563200  0.32113258     0.19090
C497        C  0.80486083  0.20103180  0.52033892    -0.06740
C498        C  0.79311604  0.16166266  0.53762081    -0.17870
C499        C  0.80700510  0.14682144  0.57883317     0.10460
C500        C  0.83863392  0.16887232  0.60335227    -0.06670
C501        C  0.83903662  0.21149965  0.59092897    -0.17900
C502        C  0.82949581  0.22578383  0.54829443     0.10490
S503        S  0.76703513  0.11468812  0.60459159    -0.32870
S504        S  0.85273420  0.27437755  0.53035068    -0.32870
H505        H  0.85574743  0.26280307  0.48669816     0.28500
H506        H  0.76700768  0.13781732  0.64312483     0.28490
H507        H  0.76945604  0.14397500  0.52066503     0.19080
H508        H  0.84366481  0.23439923  0.61564290     0.19090
C509        C  0.81599581  0.94582575  0.25300089    -0.06740
C510        C  0.80892652  0.90382654  0.23742681    -0.17870
C511        C  0.82285572  0.86623909  0.25977489     0.10460
C512        C  0.84549600  0.86944834  0.29884126    -0.06670
C513        C  0.86205193  0.91071249  0.30389598    -0.17900
C514        C  0.84926020  0.94697762  0.28250735     0.10490
S515        S  0.81835218  0.81678052  0.23249790    -0.32870
S516        S  0.88316471  0.99153320  0.28946445    -0.32870
H517        H  0.92177457  0.96943116  0.28846083     0.28500
H518        H  0.81273207  0.79282734  0.27011567     0.28490
H519        H  0.79579527  0.89944305  0.20601863     0.19080
H520        H  0.88832567  0.91519090  0.32468484     0.19090
C521        C  0.80828254  0.03079935  0.25536341    -0.06740
C522        C  0.79109126  0.04898963  0.29341628    -0.17870
C523        C  0.80403371  0.08894845  0.30948724     0.10460
C524        C  0.83708182  0.11335769  0.28879180    -0.06670
C525        C  0.85239634  0.09390614  0.24978880    -0.17900
C526        C  0.83879783  0.05515514  0.23294971     0.10490
S527        S  0.77625669  0.10566586  0.35741548    -0.32870
S528        S  0.86749349  0.03591249  0.18560145    -0.32870
H529        H  0.85894585  0.99297300  0.19037142     0.28500
H530        H  0.75953082  0.14113028  0.33625103     0.28490
H531        H  0.76731978  0.03158563  0.31140828     0.19080
H532        H  0.88015857  0.10415219  0.23377383     0.19090
C533        C  0.06744277  0.77364325  0.26096711    -0.06740
C534        C  0.09585752  0.74973936  0.28653774    -0.17870
C535        C  0.13768203  0.76321634  0.29676038     0.10460
C536        C  0.15193316  0.80509461  0.28719402    -0.06670
C537        C  0.12520989  0.82556958  0.25585020    -0.17900
C538        C  0.08464985  0.81111992  0.24333750     0.10490
S539        S  0.16955674  0.72606896  0.32537742    -0.32870
S540        S  0.05396619  0.84403345  0.20738483    -0.32870
H541        H  0.08778879  0.86874935  0.19194497     0.28500
H542        H  0.20642689  0.73716919  0.30198509     0.28490
H543        H  0.08541311  0.71951569  0.29863114     0.19080
H544        H  0.13062787  0.85787208  0.24739955     0.19090
C545        C  0.98067105  0.77577617  0.26412580    -0.06740
C546        C  0.98154715  0.81471899  0.28435418    -0.17870
C547        C  0.94459839  0.83709742  0.29759432     0.10460
C548        C  0.90600952  0.81481776  0.30751834    -0.06670
C549        C  0.90476906  0.77586028  0.28512149    -0.17900
C550        C  0.93804790  0.76399794  0.25549601     0.10490
S551        S  0.94588060  0.88702160  0.27081808    -0.32870
S552        S  0.92046165  0.76713319  0.20044380    -0.32870
H553        H  0.95956022  0.78038364  0.18278138     0.28500
H554        H  0.91657712  0.87472559  0.23967713     0.28490
H555        H  0.00922206  0.83218509  0.27771450     0.19080
H556        H  0.87493700  0.75969952  0.28313577     0.19090
C557        C  0.70816374  0.11877140  0.18820825    -0.06740
C558        C  0.69350683  0.09406659  0.22420327    -0.17870
C559        C  0.70764405  0.05200168  0.23138619     0.10460
C560        C  0.73876443  0.03352521  0.20349541    -0.06670
C561        C  0.75980523  0.06167082  0.17526923    -0.17900
C562        C  0.74862753  0.10472189  0.17350999     0.10490
S563        S  0.68057573  0.02261477  0.27345295    -0.32870
S564        S  0.79075809  0.14151815  0.16306930    -0.32870
H565        H  0.76752768  0.17707204  0.17702418     0.28500
H566        H  0.71175776  0.99189939  0.28032426     0.28490
H567        H  0.66622662  0.10304811  0.24312547     0.19080
H568        H  0.78795576  0.05140990  0.15809216     0.19090
C569        C  0.70580443  0.87134728  0.80399313    -0.06740
C570        C  0.75028680  0.87840503  0.80356545    -0.17870
C571        C  0.76929815  0.91869725  0.79866678     0.10460
C572        C  0.74619788  0.95387750  0.78192064    -0.06670
C573        C  0.70392213  0.94473723  0.77204650    -0.17900
C574        C  0.68595135  0.90375456  0.77762773     0.10490
S575        S  0.82269087  0.92174752  0.81776946    -0.32870
S576        S  0.65350546  0.89207656  0.73189363    -0.32870
H577        H  0.67194418  0.85255673  0.72387593     0.28500
H578        H  0.82844288  0.96451638  0.80991036     0.28490
H579        H  0.77167848  0.85220838  0.80845896     0.19080
H580        H  0.68701927  0.96783136  0.75295159     0.19090
C581        C  0.72214922  0.80095153  0.85283765    -0.06740
C582        C  0.74959523  0.82437516  0.88097663    -0.17870
C583        C  0.76708029  0.80995647  0.92041018     0.10460
C584        C  0.75524747  0.77121874  0.93856741    -0.06670
C585        C  0.72808681  0.74753163  0.91267438    -0.17900
C586        C  0.71822458  0.75852208  0.86906812     0.10490
S587        S  0.80112686  0.84509913  0.94867735    -0.32870
S588        S  0.70986750  0.71500967  0.83394579    -0.32870
H589        H  0.69890530  0.68511342  0.86567761     0.28500
H590        H  0.83131974  0.81361182  0.95701797     0.28490
H591        H  0.75617962  0.85683389  0.87587541     0.19080
H592        H  0.71538060  0.71914056  0.92598710     0.19090
C593        C  0.64911798  0.81073870  0.79170901    -0.06740
C594        C  0.64972646  0.76988836  0.77391128    -0.17870
C595        C  0.61120144  0.74641313  0.77094087     0.10460
C596        C  0.57219949  0.76669013  0.76008573    -0.06670
C597        C  0.57281510  0.81028399  0.76709292    -0.17900
C598        C  0.60686594  0.83062725  0.78789466     0.10490
S599        S  0.60934551  0.70244334  0.80746622    -0.32870
S600        S  0.58852936  0.87977825  0.81206021    -0.32870
H601        H  0.62567784  0.89564506  0.82836613     0.28500
H602        H  0.56508049  0.70244326  0.81350199     0.28490
H603        H  0.67942274  0.75361822  0.77108267     0.19080
H604        H  0.54402440  0.82814643  0.76166197     0.19090
C605        C  0.48801794  0.76805969  0.76448837    -0.06740
C606        C  0.48176359  0.77438628  0.80905996    -0.17870
C607        C  0.44441192  0.79329209  0.82733061     0.10460
C608        C  0.40858247  0.80493230  0.80122461    -0.06670
C609        C  0.41497602  0.79676964  0.75638820    -0.17900
C610        C  0.45495658  0.78389048  0.73804080     0.10490
S611        S  0.44383906  0.79974038  0.88527808    -0.32870
S612        S  0.46159006  0.78824157  0.68042922    -0.32870
H613        H  0.50611448  0.78828103  0.67986921     0.28500
H614        H  0.47083262  0.76560408  0.89432108     0.28490
H615        H  0.50694089  0.76462765  0.83012646     0.19080
H616        H  0.38895739  0.80155664  0.73463091     0.19090
C617        C  0.70110902  0.81842157  0.09512617    -0.06740
C618        C  0.74455434  0.80681560  0.09852766    -0.17870
C619        C  0.76975468  0.79297127  0.06223211     0.10460
C620        C  0.74979037  0.78010119  0.02324396    -0.06670
C621        C  0.70829001  0.79577206  0.01875349    -0.17900
C622        C  0.68757386  0.81996990  0.05093573     0.10490
S623        S  0.82653168  0.79507810  0.06800436    -0.32870
S624        S  0.64969976  0.85678387  0.02924185    -0.32870
H625        H  0.65890534  0.88696307  0.05965136     0.28500
H626        H  0.83749125  0.78613821  0.02503612     0.28490
H627        H  0.75986415  0.81115526  0.12915922     0.19080
H628        H  0.69278681  0.79279521  0.98805490     0.19090
C629        C  0.70148515  0.87226805  0.15794869    -0.06740
C630        C  0.71678461  0.90538956  0.13097462    -0.17870
C631        C  0.73620167  0.94213888  0.14721126     0.10460
C632        C  0.73638007  0.95062982  0.19221494    -0.06670
C633        C  0.71974217  0.91871618  0.21922182    -0.17900
C634        C  0.70882493  0.87857324  0.20294933     0.10490
S635        S  0.76322901  0.97529013  0.10867396    -0.32870
S636        S  0.71505193  0.83601638  0.24059053    -0.32870
H637        H  0.73022020  0.80726879  0.20943675     0.28500
H638        H  0.79895116  0.98037504  0.13449978     0.28490
H639        H  0.71567948  0.90198428  0.09640114     0.19080
H640        H  0.72213975  0.92245024  0.25381453     0.19090
C641        C  0.66884532  0.01809517  0.10269030    -0.06740
C642        C  0.66313398  0.02617062  0.14677469    -0.17870
C643        C  0.64475977  0.06462834  0.15782413     0.10460
C644        C  0.65574291  0.09956879  0.13240168    -0.06670
C645        C  0.65867642  0.09174742  0.08804580    -0.17900
C646        C  0.66978703  0.05226718  0.07365674     0.10490
S647        S  0.60280145  0.06757962  0.19814737    -0.32870
S648        S  0.67580072  0.04662932  0.01683706    -0.32870
H649        H  0.70388972  0.01252441  0.02233173     0.28500
H650        H  0.60374743  0.02493949  0.20998307     0.28490
H651        H  0.65813282  0.99973844  0.16852104     0.19080
H652        H  0.65874104  0.11656410  0.06433619     0.19090
C653        C  0.48433031  0.13968140  0.08104004    -0.06740
C654        C  0.45066094  0.15365913  0.05471055    -0.17870
C655        C  0.40978975  0.13806066  0.06109911     0.10460
C656        C  0.39865358  0.11940066  0.10074877    -0.06670
C657        C  0.43218851  0.09986506  0.12250454    -0.17900
C658        C  0.47274993  0.11608809  0.11868795     0.10490
S659        S  0.37967582  0.12641854  0.01443457    -0.32870
S660        S  0.50760903  0.10657051  0.16330254    -0.32870
H661        H  0.47620468  0.09702289  0.19458560     0.28500
H662        H  0.41525901  0.11716839  0.98802253     0.28490
H663        H  0.45764176  0.16935112  0.02427487     0.19080
H664        H  0.42612649  0.07849969  0.14869732     0.19090
C665        C  0.37730221  0.93599927  0.05484898    -0.06740
C666        C  0.41221256  0.90926549  0.04589332    -0.17870
C667        C  0.41260930  0.86743190  0.06040216     0.10460
C668        C  0.37672883  0.85288024  0.08414829    -0.06670
C669        C  0.33813314  0.87561945  0.07559246    -0.17900
C670        C  0.33858265  0.91788056  0.06460207     0.10490
S671        S  0.44783468  0.83342879  0.03044419    -0.32870
S672        S  0.29014641  0.94790539  0.06905831    -0.32870
H673        H  0.30304285  0.97865391  0.03895910     0.28500
H674        H  0.46374600  0.81351540  0.06697182     0.28490
H675        H  0.44020145  0.92194183  0.03008439     0.19080
H676        H  0.30820912  0.86475649  0.08779605     0.19090
C677        C  0.58168433  0.82671511  0.91729245    -0.06740
C678        C  0.61299884  0.85766156  0.92305947    -0.17870
C679        C  0.64967774  0.85870858  0.89689744     0.10460
C680        C  0.65440924  0.82762463  0.86543306    -0.06670
C681        C  0.63070840  0.78986061  0.87375095    -0.17900
C682        C  0.59328223  0.78983704  0.89731482     0.10490
S683        S  0.69054793  0.89602466  0.90668452    -0.32870
S684        S  0.56225297  0.74265515  0.90123167    -0.32870
H685        H  0.54118289  0.75301413  0.94020262     0.28500
H686        H  0.68284967  0.89814044  0.95143239     0.28490
H687        H  0.60867504  0.88025028  0.94812413     0.19080
H688        H  0.63877773  0.76122316  0.85779151     0.19090
C689        C  0.49929140  0.09990336  0.84084656    -0.06740
C690        C  0.48067778  0.13682328  0.85635778    -0.17870
C691        C  0.43785270  0.13592233  0.86823846     0.10460
C692        C  0.41034979  0.11049774  0.84340852    -0.06670
C693        C  0.42979273  0.07682188  0.82058314    -0.17900
C694        C  0.47352565  0.07239657  0.81734440     0.10490
S695        S  0.42008438  0.16988131  0.91199818    -0.32870
S696        S  0.49550552  0.03039744  0.78433821    -0.32870
H697        H  0.45725555  0.01331722  0.77023492     0.28500
H698        H  0.46013678  0.18158063  0.92674378     0.28490
H699        H  0.50099764  0.15866225  0.87248628     0.19080
H700        H  0.41152064  0.05594544  0.80124938     0.19090
C701        C  0.35183205  0.93246853  0.89759769    -0.06740
C702        C  0.36898518  0.93232480  0.85536107    -0.17870
C703        C  0.39027056  0.89570838  0.84193915     0.10460
C704        C  0.37368736  0.85650005  0.85574055    -0.06670
C705        C  0.35204350  0.85645017  0.89608303    -0.17900
C706        C  0.33898771  0.89406385  0.91550569     0.10490
S707        S  0.43892404  0.89929472  0.81034000    -0.32870
S708        S  0.30968327  0.89198474  0.96561782    -0.32870
H709        H  0.30226772  0.93566297  0.96763003     0.28500
H710        H  0.44240889  0.94329914  0.81187436     0.28490
H711        H  0.37948620  0.96207176  0.84188576     0.19080
H712        H  0.34313347  0.82771322  0.91189198     0.19090
C713        C  0.54220279  0.86298522  0.14515699    -0.06740
C714        C  0.55770423  0.82427251  0.13099575    -0.17870
C715        C  0.59772131  0.82176201  0.11166365     0.10460
C716        C  0.62950693  0.85116031  0.12459540    -0.06670
C717        C  0.61427326  0.88858041  0.14475619    -0.17900
C718        C  0.57184144  0.89306387  0.15784208     0.10490
S719        S  0.60598566  0.77785251  0.07483161    -0.32870
S720        S  0.55536447  0.93746067  0.19038527    -0.32870
H721        H  0.59627312  0.94954872  0.20219450     0.28500
H722        H  0.56441260  0.77636507  0.05942754     0.28490
H723        H  0.53503621  0.80182003  0.12074629     0.19080
H724        H  0.63554134  0.91286044  0.15459237     0.19090
C725        C  0.71661949  0.11990946  0.80930743    -0.06740
C726        C  0.74737975  0.09722347  0.83304990    -0.17870
C727        C  0.75924300  0.05538169  0.82150140     0.10460
C728        C  0.74958822  0.03903018  0.78012952    -0.06670
C729        C  0.73241977  0.06925897  0.75111304    -0.17900
C730        C  0.71986864  0.11052710  0.76504093     0.10490
S731        S  0.79100078  0.02664116  0.85922805    -0.32870
S732        S  0.72347221  0.15348393  0.72696117    -0.32870
H733        H  0.71479984  0.18531766  0.75740658     0.28500
H734        H  0.76741820  0.98973805  0.85566237     0.28490
H735        H  0.75542751  0.10810197  0.86478196     0.19080
H736        H  0.73166151  0.06204316  0.71701572     0.19090
C737        C  0.66267613  0.00077159  0.87333861    -0.06740
C738        C  0.65069358  0.01398803  0.83237150    -0.17870
C739        C  0.64111201  0.05639698  0.82567017     0.10460
C740        C  0.65956042  0.08780044  0.85174314    -0.06670
C741        C  0.68254038  0.07112823  0.88822706    -0.17900
C742        C  0.68482375  0.02828691  0.89803358     0.10490
S743        S  0.59154629  0.06413901  0.80009109    -0.32870
S744        S  0.72186866  0.00650325  0.93569128    -0.32870
H745        H  0.74220084  0.04451874  0.94487329     0.28500
H746        H  0.59421277  0.02966156  0.77177764     0.28490
H747        H  0.63679399  0.99092933  0.81147759     0.19080
H748        H  0.70252945  0.09045878  0.90741332     0.19090
C749        C  0.39762620  0.16239076  0.78984261    -0.06740
C750        C  0.41443585  0.19923785  0.80918179    -0.17870
C751        C  0.45588970  0.21387612  0.80073249     0.10460
C752        C  0.47806335  0.20239642  0.76247520    -0.06670
C753        C  0.45921082  0.17124292  0.73763169    -0.17900
C754        C  0.42234887  0.14902753  0.75189669     0.10490
S755        S  0.47980869  0.24319153  0.84369480    -0.32870
S756        S  0.41372790  0.10085692  0.72263444    -0.32870
H757        H  0.43327242  0.11289740  0.68337690     0.28500
H758        H  0.51747579  0.22000851  0.84257007     0.28490
H759        H  0.40014874  0.21119309  0.83837608     0.19080
H760        H  0.47633864  0.16114938  0.70884988     0.19090
C761        C  0.56147722  0.20191144  0.76721193    -0.06740
C762        C  0.57587486  0.16262682  0.75257919    -0.17870
C763        C  0.61564303  0.14457290  0.76421490     0.10460
C764        C  0.63690620  0.15759017  0.80358353    -0.06670
C765        C  0.62128199  0.19816402  0.81739604    -0.17900
C766        C  0.58791090  0.22127979  0.79772426     0.10490
S767        S  0.63427398  0.10940164  0.72145360    -0.32870
S768        S  0.58174198  0.27538354  0.81454507    -0.32870
H769        H  0.54602955  0.28539348  0.79070385     0.28500
H770        H  0.65227019  0.07697248  0.74503172     0.28490
H771        H  0.55779739  0.14771243  0.72757606     0.19080
H772        H  0.63474620  0.21418610  0.84415388     0.19090
C773        C  0.41728972  0.79989228  0.14818830    -0.06740
C774        C  0.44290319  0.76645639  0.12957428    -0.17870
C775        C  0.48204863  0.75058804  0.14560782     0.10460
C776        C  0.49524171  0.75980384  0.18782708    -0.06670
C777        C  0.46869398  0.78776831  0.21025665    -0.17900
C778        C  0.43229687  0.80814228  0.19238731     0.10490
S779        S  0.51222875  0.71596644  0.11012650    -0.32870
S780        S  0.40641657  0.83873333  0.23446611    -0.32870
H781        H  0.44354635  0.85777281  0.24929755     0.28500
H782        H  0.53222726  0.69252905  0.14230557     0.28490
H783        H  0.43272982  0.74685546  0.10443181     0.19080
H784        H  0.47582758  0.79300730  0.24374556     0.19090
C785        C  0.57851711  0.75904548  0.20025369    -0.06740
C786        C  0.60798266  0.73981139  0.17119608    -0.17870
C787        C  0.64808204  0.75769518  0.16015950     0.10460
C788        C  0.65755361  0.79998957  0.17160274    -0.06670
C789        C  0.63066977  0.81560566  0.20594937    -0.17900
C790        C  0.59246913  0.79665271  0.21963266     0.10490
S791        S  0.68378008  0.72598083  0.12816794    -0.32870
S792        S  0.56030350  0.82738731  0.25644312    -0.32870
H793        H  0.53901233  0.79328722  0.27366365     0.28500
H794        H  0.71892351  0.74331535  0.14816167     0.28490
H795        H  0.59975166  0.71079337  0.15565094     0.19080
H796        H  0.63454182  0.84750888  0.21681985     0.19090
C797        C  0.23402536  0.94222221  0.69369655    -0.06740
C798        C  0.18978858  0.93899952  0.69292120    -0.17870
C799        C  0.16838601  0.90433480  0.67456679     0.10460
C800        C  0.19203021  0.86681419  0.65998275    -0.06670
C801        C  0.23657628  0.87012020  0.66613917    -0.17900
C802        C  0.25684965  0.90825588  0.67508003     0.10490
S803        S  0.11164123  0.91540414  0.67335456    -0.32870
S804        S  0.30926868  0.91362108  0.65202815    -0.32870
H805        H  0.30886586  0.95772025  0.65044370     0.28500
H806        H  0.09502734  0.87659992  0.66375938     0.28490
H807        H  0.17125837  0.96515743  0.70567703     0.19080
H808        H  0.25743252  0.84387834  0.65885433     0.19090
C809        C  0.23660386  0.02390956  0.69780812    -0.06740
C810        C  0.24116257  0.03233105  0.65418289    -0.17870
C811        C  0.22780738  0.07002426  0.63496895     0.10460
C812        C  0.20892603  0.10457072  0.66086841    -0.06670
C813        C  0.20808465  0.09596631  0.70607660    -0.17900
C814        C  0.21892086  0.05619420  0.72405993     0.10490
S815        S  0.23628044  0.06467087  0.57664380    -0.32870
S816        S  0.20668886  0.04814871  0.78056022    -0.32870
H817        H  0.20508703  0.00404456  0.77882591     0.28500
H818        H  0.21907067  0.09978722  0.55738751     0.28490
H819        H  0.25511256  0.00784876  0.63405571     0.19080
H820        H  0.19480549  0.11781534  0.72846905     0.19090
C821        C  0.30635040  0.01996474  0.76193902    -0.06740
C822        C  0.31432744  0.05775283  0.73842253    -0.17870
C823        C  0.32623683  0.09565599  0.75928080     0.10460
C824        C  0.34304500  0.09470825  0.80120164    -0.06670
C825        C  0.33420007  0.05695902  0.82448215    -0.17900
C826        C  0.31205120  0.02289994  0.80693242     0.10490
S827        S  0.31781282  0.14466313  0.73233479    -0.32870
S828        S  0.28462083  0.98813862  0.84371581    -0.32870
H829        H  0.29418766  0.00946011  0.88200097     0.28500
H830        H  0.28630253  0.15669853  0.76260403     0.28490
H831        H  0.30895793  0.05897399  0.70412329     0.19080
H832        H  0.34597806  0.05206094  0.85626570     0.19090
C833        C  0.30505290  0.93612053  0.75521445    -0.06740
C834        C  0.27878778  0.90985685  0.77964168    -0.17870
C835        C  0.29473935  0.87464237  0.80265947     0.10460
C836        C  0.33501962  0.85377084  0.79004212    -0.06670
C837        C  0.35710406  0.87780550  0.75735278    -0.17900
C838        C  0.34573377  0.91962137  0.74500675     0.10490
S839        S  0.26521851  0.86819708  0.85311121    -0.32870
S840        S  0.38609119  0.95020668  0.71740106    -0.32870
H841        H  0.36030871  0.98283535  0.70204139     0.28500
H842        H  0.24249315  0.90637558  0.85494018     0.28490
H843        H  0.24698974  0.92137429  0.78652826     0.19080
H844        H  0.38841847  0.86885710  0.74700282     0.19090
C845        C  0.07115873  0.70284697  0.20774500    -0.06740
C846        C  0.08887871  0.66767300  0.22838975    -0.17870
C847        C  0.12736556  0.64845196  0.21344972     0.10460
C848        C  0.15481578  0.66912390  0.18134137    -0.06670
C849        C  0.14219316  0.71128136  0.17321923    -0.17900
C850        C  0.09945937  0.72502954  0.17949214     0.10490
S851        S  0.13041010  0.59405171  0.23082040    -0.32870
S852        S  0.08254714  0.76691372  0.14438922    -0.32870
H853        H  0.03945614  0.76702335  0.15597747     0.28500
H854        H  0.13472989  0.57677710  0.18934170     0.28490
H855        H  0.06938345  0.65134660  0.25211449     0.19080
H856        H  0.16323125  0.73159088  0.15523088     0.19090
C857        C  0.84711899  0.65535462  0.11033416    -0.06740
C858        C  0.86015610  0.64544559  0.06711041    -0.17870
C859        C  0.84902885  0.66845397  0.02989400     0.10460
C860        C  0.81423004  0.69763160  0.02991609    -0.06670
C861        C  0.79570008  0.70238945  0.07241187    -0.17900
C862        C  0.81578390  0.68796224  0.11159318     0.10490
S863        S  0.88590816  0.66007719  0.98588743    -0.32870
S864        S  0.79950534  0.71250387  0.16166224    -0.32870
H865        H  0.83427693  0.69963507  0.18593503     0.28500
H866        H  0.90178188  0.70113144  0.98906691     0.28490
H867        H  0.88350086  0.62105559  0.06143958     0.19080
H868        H  0.76570666  0.71807657  0.07623096     0.19090
C869        C  0.98674708  0.69459392  0.20605531    -0.06740
C870        C  0.97957128  0.69299577  0.16166069    -0.17870
C871        C  0.94306797  0.67467116  0.14346611     0.10460
C872        C  0.90845771  0.65777991  0.16932729    -0.06670
C873        C  0.91418188  0.66498649  0.21443597    -0.17900
C874        C  0.95372570  0.67733710  0.23257885     0.10490
S875        S  0.94570292  0.67477752  0.08628446    -0.32870
S876        S  0.95897267  0.67153195  0.29022198    -0.32870
H877        H  0.00322119  0.67544217  0.29093182     0.28500
H878        H  0.94774753  0.63075893  0.08698204     0.28490
H879        H  0.00337973  0.70618828  0.14017049     0.19080
H880        H  0.88808439  0.66007745  0.23682594     0.19090
C881        C  0.85158845  0.35132829  0.80851663    -0.06740
C882        C  0.87684435  0.37965503  0.78282946    -0.17870
C883        C  0.86442261  0.42012088  0.76872313     0.10460
C884        C  0.82241350  0.43425691  0.77391936    -0.06670
C885        C  0.79501638  0.40592737  0.79623337    -0.17900
C886        C  0.80851057  0.36553368  0.81217247     0.10490
S887        S  0.90399453  0.45250185  0.74279971    -0.32870
S888        S  0.76718119  0.33161120  0.82969174    -0.32870
H889        H  0.77900728  0.30062832  0.79938368     0.28500
H890        H  0.93936719  0.43329810  0.76193744     0.28490
H891        H  0.90764821  0.37120450  0.77189585     0.19080
H892        H  0.76204588  0.41460181  0.80028954     0.19090
C893        C  0.06480266  0.69768291  0.74084014    -0.06740
C894        C  0.09678290  0.72469465  0.75758239    -0.17870
C895        C  0.13855427  0.70975995  0.76685546     0.10460
C896        C  0.14523629  0.66735306  0.77390188    -0.06670
C897        C  0.11906098  0.64219008  0.74762899    -0.17900
C898        C  0.08024452  0.65657373  0.73021197     0.10490
S899        S  0.18488192  0.73850332  0.75220233    -0.32870
S900        S  0.05024462  0.61776220  0.70124801    -0.32870
H901        H  0.01328878  0.64124987  0.69445313     0.28500
H902        H  0.16925977  0.77499076  0.77065659     0.28490
H903        H  0.08949670  0.75690357  0.76521109     0.19080
H904        H  0.12809295  0.61046853  0.74074588     0.19090
C905        C  0.16529460  0.44929660  0.09599337    -0.06740
C906        C  0.13078613  0.43142963  0.11962328    -0.17870
C907        C  0.12394591  0.38829466  0.12127176     0.10460
C908        C  0.15641565  0.36090674  0.10689393    -0.06670
C909        C  0.18326892  0.37859582  0.07440156    -0.17900
C910        C  0.19136506  0.42112240  0.07185344     0.12050
S911        S  0.07571434  0.37193530  0.14689012    -0.32870
S912        S  0.23227750  0.43540829  0.03244337    -0.32870
H913        H  0.23004280  0.47931828  0.03415180     0.28500
H914        H  0.07664349  0.33215398  0.12780768     0.28490
H915        H  0.10709417  0.45059415  0.13592140     0.19080
H916        H  0.20110970  0.35935207  0.05200899     0.19090
C917        C  0.08987693  0.64498933  0.04522583    -0.06740
C918        C  0.08700026  0.66834646  0.08285026    -0.17870
C919        C  0.10348870  0.64655901  0.11808627     0.10460
C920        C  0.14546469  0.62999486  0.11314987    -0.06670
C921        C  0.15661160  0.61806025  0.07055240    -0.17900
C922        C  0.12866508  0.62313346  0.03737255     0.10490
S923        S  0.06534529  0.61781680  0.15105223    -0.32870
S924        S  0.13736975  0.58381508  0.99762881    -0.32870
H925        H  0.09611408  0.56809179  0.99776184     0.28500
H926        H  0.02885024  0.63328452  0.13125495     0.28490
H927        H  0.05790694  0.68608587  0.08841677     0.19080
H928        H  0.18833149  0.61036006  0.06030800     0.19090
C929        C  0.88359483  0.58669213  0.13250488    -0.06740
C930        C  0.85042607  0.56397488  0.11171706    -0.17870
C931        C  0.84482327  0.52102933  0.11827504     0.10460
C932        C  0.87979177  0.49842787  0.13169645    -0.06670
C933        C  0.90783780  0.51875679  0.15892497    -0.17900
C934        C  0.91535024  0.56156707  0.15289693     0.10490
S935        S  0.80072827  0.49365123  0.09550603    -0.32870
S936        S  0.96381175  0.58140173  0.17455405    -0.32870
H937        H  0.98635601  0.54304848  0.17517866     0.28500
H938        H  0.77556520  0.52962725  0.08829953     0.28490
H939        H  0.82436767  0.58021514  0.09680882     0.19080
H940        H  0.93108831  0.49986280  0.17569448     0.19090
C941        C  0.99375319  0.35274076  0.88645685    -0.06740
C942        C  0.95613121  0.36189218  0.91054723    -0.17870
C943        C  0.91602529  0.35771239  0.89172745     0.10460
C944        C  0.91410353  0.33476676  0.85266641    -0.06670
C945        C  0.95139273  0.33449363  0.82836808    -0.17900
C946        C  0.98984855  0.34311417  0.84325560     0.10490
S947        S  0.87049918  0.38138106  0.91881824    -0.32870
S948        S  0.02810299  0.35638793  0.80182044    -0.32870
H949        H  0.00042497  0.38015541  0.77600365     0.28500
H950        H  0.83924106  0.37027792  0.89003003     0.28490
H951        H  0.95842765  0.37731556  0.94129690     0.19080
H952        H  0.95129016  0.33265199  0.79523921     0.19090
C953        C  0.06081158  0.64661019  0.90934266    -0.06740
C954        C  0.09487701  0.61829533  0.91432973    -0.17870
C955        C  0.13070215  0.61930240  0.88706539     0.10460
C956        C  0.13061814  0.64652605  0.85104985    -0.06670
C957        C  0.10038431  0.68020072  0.85442015    -0.17900
C958        C  0.06802433  0.68213057  0.88517554     0.10490
S959        S  0.17474146  0.58601644  0.89996503    -0.32870
S960        S  0.03039098  0.72511760  0.88382227    -0.32870
H961        H  0.00852922  0.71329428  0.92192484     0.28500
H962        H  0.18707310  0.61291367  0.93309968     0.28490
H963        H  0.08904434  0.59000046  0.93204477     0.19080
H964        H  0.09947715  0.70583162  0.83310432     0.19090
C965        C  0.14985660  0.45228859  0.86445954    -0.06740
C966        C  0.18101476  0.42751207  0.88430490    -0.17870
C967        C  0.17393990  0.38483188  0.88869618     0.10460
C968        C  0.15371369  0.36460803  0.85522341    -0.06670
C969        C  0.12108746  0.38787572  0.83653298    -0.17900
C970        C  0.11890498  0.43143448  0.83967438     0.10490
S971        S  0.16948051  0.36335236  0.94264706    -0.32870
S972        S  0.07842328  0.45785985  0.80871314    -0.32870
H973        H  0.07613051  0.42800899  0.77558687     0.28500
H974        H  0.18139582  0.40007401  0.96412585     0.28490
H975        H  0.20445435  0.44153353  0.90462750     0.19080
H976        H  0.10329398  0.37335257  0.81233666     0.19090
C977        C  0.96562270  0.36449135  0.03342163    -0.06740
C978        C  0.95492274  0.32278206  0.03023360    -0.17870
C979        C  0.92122595  0.30774625  0.05604370     0.10460
C980        C  0.90130832  0.33627475  0.08804373    -0.06670
C981        C  0.90550884  0.37891435  0.07850012    -0.17900
C982        C  0.93258918  0.39131374  0.04542425     0.10490
S983        S  0.91355140  0.25227034  0.04715255    -0.32870
S984        S  0.91065038  0.42272370  0.00472230    -0.32870
H985        H  0.95095130  0.43273454  0.98783680     0.28500
H986        H  0.91178710  0.23666076  0.08909678     0.28490
H987        H  0.97685729  0.30101054  0.01459278     0.19080
H988        H  0.88451379  0.40178065  0.09277187     0.19090
C989        C  0.84217693  0.67196063  0.85757389    -0.06740
C990        C  0.80054074  0.66704137  0.87386898    -0.17870
C991        C  0.78943480  0.67443693  0.91813562     0.10460
C992        C  0.81307620  0.70306528  0.94251177    -0.06670
C993        C  0.84837405  0.72056604  0.92070928    -0.17900
C994        C  0.86505230  0.70356139  0.88111695     0.10490
S995        S  0.74594131  0.64574172  0.94256145    -0.32870
S996        S  0.91130382  0.72972380  0.85962485    -0.32870
H997        H  0.92652720  0.74418555  0.89925765     0.28500
H998        H  0.76195112  0.64506866  0.98453355     0.28490
H999        H  0.77724848  0.65619400  0.85208222     0.19080
H1000       H  0.86461871  0.74599779  0.93630425     0.19090
C1001       C  0.90140196  0.65710270  0.79814656    -0.06740
C1002       C  0.94353039  0.65245477  0.81213850    -0.17870
C1003       C  0.97943492  0.66693007  0.78899571     0.10460
C1004       C  0.97756027  0.69310073  0.75177092    -0.06670
C1005       C  0.93495108  0.69744381  0.73676012    -0.17900
C1006       C  0.89785608  0.68261199  0.76027797     0.10490
S1007       S  0.02633685  0.64278352  0.80579004    -0.32870
S1008       S  0.84675935  0.69799795  0.74035155    -0.32870
H1009       H  0.82283570  0.69212163  0.77829574     0.28500
H1010       H  0.01523778  0.60318398  0.78995870     0.28490
H1011       H  0.94955270  0.63588554  0.84194370     0.19080
H1012       H  0.92961545  0.71171176  0.70581606     0.19090
C1013       C  0.83089180  0.60541098  0.79948287    -0.06740
C1014       C  0.84422173  0.59255590  0.75735309    -0.17870
C1015       C  0.84104145  0.55053373  0.74191870     0.10460
C1016       C  0.82101192  0.51858936  0.76743668    -0.06670
C1017       C  0.80208483  0.53186325  0.80556872    -0.17900
C1018       C  0.80340178  0.57369504  0.82029596     0.10490
S1019       S  0.86732566  0.54041104  0.69083654    -0.32870
S1020       S  0.76534188  0.58122313  0.86379400    -0.32870
H1021       H  0.76420675  0.54026796  0.88108270     0.28500
H1022       H  0.85621270  0.49817783  0.68763412     0.28490
H1023       H  0.86239632  0.61359445  0.73729448     0.19080
H1024       H  0.78270954  0.50897575  0.82257337     0.19090
C1025       C  0.88230799  0.59975332  0.85409160    -0.06740
C1026       C  0.86390791  0.59399579  0.89546014    -0.17870
C1027       C  0.85139308  0.55465015  0.91004940     0.10460
C1028       C  0.86681712  0.51809307  0.88872876    -0.06670
C1029       C  0.88621241  0.52325616  0.84818146    -0.17900
C1030       C  0.89965966  0.56237751  0.83386242     0.10490
S1031       S  0.81868691  0.55275417  0.95874887    -0.32870
S1032       S  0.93904031  0.55866624  0.79059338    -0.32870
H1033       H  0.92531491  0.58950813  0.76207447     0.28500
H1034       H  0.80722856  0.51040862  0.95370917     0.28490
H1035       H  0.85394248  0.62009765  0.91490404     0.19080
H1036       H  0.89654310  0.49583114  0.83015600     0.19090
C1037       C  0.22547417  0.52795080  0.76102857    -0.06740
C1038       C  0.19541149  0.52685468  0.79551389    -0.17870
C1039       C  0.16963630  0.56284252  0.80585916     0.10460
C1040       C  0.18643242  0.60412468  0.79875394    -0.06670
C1041       C  0.21730833  0.60423549  0.76457897    -0.17900
C1042       C  0.22419584  0.56710504  0.73923497     0.10490
S1043       S  0.11438065  0.55300758  0.79715392    -0.32870
S1044       S  0.18918460  0.56668406  0.69349002    -0.32870
H1045       H  0.19591953  0.52467154  0.68179175     0.28500
H1046       H  0.09712044  0.59087081  0.81044853     0.28490
H1047       H  0.18529537  0.49658909  0.80659534     0.19080
H1048       H  0.22608609  0.63434327  0.75094916     0.19090
C1049       C  0.22913554  0.44349447  0.75909252    -0.06740
C1050       C  0.25628401  0.41312405  0.77825533    -0.17870
C1051       C  0.24304770  0.37125564  0.78732384     0.10460
C1052       C  0.19952853  0.36136938  0.78954234    -0.06670
C1053       C  0.17458475  0.38866001  0.76330095    -0.17900
C1054       C  0.18797078  0.42915845  0.74972528     0.10490
S1055       S  0.28285095  0.33042705  0.78500208    -0.32870
S1056       S  0.15119530  0.46209749  0.72088797    -0.32870
H1057       H  0.12341442  0.43001557  0.70894047     0.28500
H1058       H  0.25392294  0.29813552  0.77668883     0.28490
H1059       H  0.28900805  0.42087834  0.78343846     0.19080
H1060       H  0.14267813  0.38012639  0.75582096     0.19090
C1061       C  0.83828352  0.60878064  0.18874071    -0.06740
C1062       C  0.85953867  0.58504454  0.22184951    -0.17870
C1063       C  0.85031732  0.54261739  0.23321766     0.10460
C1064       C  0.81504449  0.52164906  0.21556087    -0.06670
C1065       C  0.78806299  0.54798146  0.19107169    -0.17900
C1066       C  0.79744699  0.59077182  0.17990357     0.10490
S1067       S  0.89002309  0.51655168  0.26558715    -0.32870
S1068       S  0.75821990  0.61806781  0.14868238    -0.32870
H1069       H  0.72365190  0.59252583  0.16030031     0.28500
H1070       H  0.86557761  0.48209291  0.27830206     0.28490
H1071       H  0.89031825  0.59410099  0.23217912     0.19080
H1072       H  0.75939776  0.53421290  0.17911743     0.19090
C1073       C  0.85561765  0.36170607  0.15905804    -0.06740
C1074       C  0.81116948  0.36611066  0.16870343    -0.17870
C1075       C  0.79201062  0.40326002  0.18758333     0.10460
C1076       C  0.81683776  0.43612981  0.20563123    -0.06670
C1077       C  0.86093283  0.42939342  0.20041864    -0.17900
C1078       C  0.88014703  0.39431700  0.17843367     0.10490
S1079       S  0.73556293  0.40852911  0.18173125    -0.32870
S1080       S  0.93707962  0.39298526  0.17664738    -0.32870
H1081       H  0.94427739  0.42201827  0.20977956     0.28500
H1082       H  0.73499174  0.45272083  0.18071662     0.28490
H1083       H  0.78990360  0.34228820  0.15737318     0.19080
H1084       H  0.88153167  0.45257489  0.21298946     0.19090
C1085       C  0.06650813  0.19479510  0.70867292    -0.06740
C1086       C  0.06961372  0.19422198  0.66402971    -0.17870
C1087       C  0.10693091  0.18482610  0.64143068     0.10460
C1088       C  0.14506976  0.17115276  0.66345784    -0.06670
C1089       C  0.14372577  0.17881417  0.70846365    -0.17900
C1090       C  0.10469531  0.18611269  0.73136437     0.10490
S1091       S  0.10022500  0.18920214  0.58366069    -0.32870
S1092       S  0.10533947  0.17685161  0.78877668    -0.32870
H1093       H  0.06137943  0.17179199  0.79408181     0.28500
H1094       H  0.07714901  0.22729679  0.58526004     0.28490
H1095       H  0.04226434  0.20176710  0.64534920     0.19080
H1096       H  0.17234875  0.17751060  0.72667215     0.19090
C1097       C  0.98214014  0.19630008  0.70861544    -0.06740
C1098       C  0.96706108  0.21833717  0.67340554    -0.17870
C1099       C  0.92615730  0.21366700  0.65641187     0.10460
C1100       C  0.89654695  0.18128613  0.67262103    -0.06670
C1101       C  0.91101711  0.16474507  0.71347839    -0.17900
C1102       C  0.95278247  0.17004104  0.72979618     0.10490
S1103       S  0.91879933  0.25091195  0.61277806    -0.32870
S1104       S  0.97033465  0.13885526  0.77499560    -0.32870
H1105       H  0.93018339  0.12474823  0.78863116     0.28500
H1106       H  0.96100437  0.25840597  0.59987326     0.28490
H1107       H  0.98798110  0.24189336  0.66005541     0.19080
H1108       H  0.89388211  0.14112575  0.73035162     0.19090
C1109       C  0.89363194  0.27620191  0.80190070    -0.06740
C1110       C  0.90537322  0.28670837  0.75868328    -0.17870
C1111       C  0.94822774  0.28123583  0.74363847     0.10460
C1112       C  0.97849620  0.25933983  0.76977014    -0.06670
C1113       C  0.96218126  0.23869496  0.80624420    -0.17900
C1114       C  0.91959304  0.24341191  0.81930624     0.10490
S1115       S  0.96475118  0.31491456  0.69962023    -0.32870
S1116       S  0.89891268  0.20061616  0.85080501    -0.32870
H1117       H  0.86538237  0.19411442  0.82235295     0.28500
H1118       H  0.00591490  0.32062236  0.71455694     0.28490
H1119       H  0.88489436  0.30722452  0.74039054     0.19080
H1120       H  0.98184105  0.21583940  0.82265430     0.19090
C1121       C  0.06311884  0.26676465  0.77114706    -0.06740
C1122       C  0.07010096  0.26733852  0.81585520    -0.17870
C1123       C  0.10660099  0.28555028  0.83415583     0.10460
C1124       C  0.14007472  0.30296595  0.80738411    -0.06670
C1125       C  0.13423657  0.29872043  0.76232891    -0.17900
C1126       C  0.09578768  0.28415942  0.74439004     0.10490
S1127       S  0.10823365  0.28649857  0.89250392    -0.32870
S1128       S  0.08764897  0.29165949  0.68731142    -0.32870
H1129       H  0.12691592  0.31015046  0.67720583     0.28500
H1130       H  0.06495378  0.27907045  0.90070035     0.28490
H1131       H  0.04625923  0.25368160  0.83695508     0.19080
H1132       H  0.15902406  0.30920159  0.74049236     0.19090
C1133       C  0.72909166  0.19719896  0.03330727    -0.06740
C1134       C  0.70999177  0.22329070  0.06487766    -0.17870
C1135       C  0.69819815  0.20781702  0.10630582     0.10460
C1136       C  0.70245624  0.16414835  0.11651931    -0.06670
C1137       C  0.72892863  0.14122904  0.08704159    -0.17900
C1138       C  0.73900383  0.15552518  0.04540898     0.10490
S1139       S  0.68121678  0.24612597  0.14512228    -0.32870
S1140       S  0.76268599  0.11719536  0.00915864    -0.32870
H1141       H  0.78214146  0.14538861  0.98090486     0.28500
H1142       H  0.69906934  0.22212982  0.17828787     0.28490
H1143       H  0.70506544  0.25627745  0.05751128     0.19080
H1144       H  0.73694506  0.10877752  0.09364975     0.19090
C1145       C  0.71650839  0.20239888  0.95017962    -0.06740
C1146       C  0.68506546  0.17118096  0.95367069    -0.17870
C1147       C  0.66398293  0.15618372  0.91693093     0.10460
C1148       C  0.68258886  0.16200182  0.87455352    -0.06670
C1149       C  0.70690501  0.19935926  0.87150400    -0.17900
C1150       C  0.71662516  0.22280663  0.90937171     0.10490
S1151       S  0.61310118  0.13227830  0.92692981    -0.32870
S1152       S  0.71786851  0.27923378  0.90596967    -0.32870
H1153       H  0.71441354  0.28645257  0.95066937     0.28500
H1154       H  0.59747625  0.14088230  0.88563030     0.28490
H1155       H  0.67456869  0.16006548  0.98508487     0.19080
H1156       H  0.71429864  0.21239261  0.83994895     0.19090
C1157       C  0.79712854  0.25501317  0.03354686    -0.06740
C1158       C  0.79097618  0.29802390  0.03963337    -0.17870
C1159       C  0.81196323  0.32103757  0.07156618     0.10460
C1160       C  0.83740472  0.29994979  0.10438020    -0.06670
C1161       C  0.83368537  0.25554651  0.10443004    -0.17900
C1162       C  0.81812145  0.23333530  0.06772452     0.10490
S1163       S  0.80903765  0.37675758  0.05854906    -0.32870
S1164       S  0.83425328  0.17921280  0.06287526    -0.32870
H1165       H  0.83936322  0.18045941  0.01773100     0.28500
H1166       H  0.81343897  0.39664020  0.09765037     0.28490
H1167       H  0.77338475  0.31492488  0.01519248     0.19080
H1168       H  0.85013579  0.23778980  0.12895129     0.19090
C1169       C  0.80773624  0.25023235  0.94851108    -0.06740
C1170       C  0.84150062  0.27823224  0.95278599    -0.17870
C1171       C  0.86895370  0.28634137  0.91787453     0.10460
C1172       C  0.85256764  0.28792972  0.87449262    -0.06670
C1173       C  0.82035054  0.25747268  0.86956545    -0.17900
C1174       C  0.80540009  0.23330485  0.90589640     0.10490
S1175       S  0.92281417  0.27186579  0.93224145    -0.32870
S1176       S  0.80221845  0.17740991  0.89813603    -0.32870
H1177       H  0.83104690  0.16868773  0.93116165     0.28500
H1178       H  0.94211234  0.26959469  0.89168247     0.28490
H1179       H  0.85287856  0.28598277  0.98433694     0.19080
H1180       H  0.81304456  0.24708890  0.83737983     0.19090
C1181       C  0.23994483  0.69401692  0.02009674    -0.06740
C1182       C  0.26506474  0.67135837  0.04995905    -0.17870
C1183       C  0.25163276  0.66249811  0.09356158     0.10460
C1184       C  0.20991575  0.67346316  0.10951901    -0.06670
C1185       C  0.18828853  0.70170823  0.08110318    -0.17900
C1186       C  0.20142839  0.71056444  0.03796078     0.10490
S1187       S  0.29200622  0.64233262  0.12820753    -0.32870
S1188       S  0.16655642  0.74448907  0.00842850    -0.32870
H1189       H  0.19866735  0.77239420  0.99550729     0.28500
H1190       H  0.28472825  0.67347093  0.15948864     0.28490
H1191       H  0.29667346  0.66176344  0.03969241     0.19080
H1192       H  0.15694263  0.71270513  0.08964441     0.19090
C1193       C  0.23756922  0.69156247  0.93181379    -0.06740
C1194       C  0.20775042  0.71772024  0.91221261    -0.17870
C1195       C  0.19155168  0.71148926  0.87040024     0.10460
C1196       C  0.20142154  0.67385200  0.84541868    -0.06670
C1197       C  0.23625133  0.65070613  0.86310941    -0.17900
C1198       C  0.25225047  0.65750539  0.90566529     0.10490
S1199       S  0.15921910  0.75517301  0.85286042    -0.32870
S1200       S  0.28546221  0.61654882  0.92733116    -0.32870
H1201       H  0.27454147  0.62375452  0.97079728     0.28500
H1202       H  0.17980425  0.78730292  0.87525081     0.28490
H1203       H  0.19814733  0.74566864  0.92906342     0.19080
H1204       H  0.24748449  0.62265839  0.84686014     0.19090
C1205       C  0.34686687  0.78671510  0.09654712    -0.06740
C1206       C  0.37059008  0.76859336  0.06180135    -0.17870
C1207       C  0.35571168  0.75366443  0.02244975     0.10460
C1208       C  0.31218092  0.75278897  0.01357859    -0.06670
C1209       C  0.28628833  0.76998340  0.04750448    -0.17900
C1210       C  0.30189910  0.78514591  0.08811648     0.10490
S1211       S  0.39703521  0.74534149  0.98309801    -0.32870
S1212       S  0.26201138  0.80535241  0.12496140    -0.32870
H1213       H  0.22745880  0.78324526  0.10854429     0.28500
H1214       H  0.38659706  0.78286490  0.96146877     0.28490
H1215       H  0.40275440  0.77541731  0.05929534     0.19080
H1216       H  0.25309120  0.77379346  0.04157656     0.19090
C1217       C  0.30965819  0.74689488  0.92535214    -0.06740
C1218       C  0.28465693  0.77351996  0.89904021    -0.17870
C1219       C  0.29746992  0.78361623  0.85593309     0.10460
C1220       C  0.34045578  0.78330488  0.84423820    -0.06670
C1221       C  0.36215425  0.74958632  0.86491522    -0.17900
C1222       C  0.34534289  0.72895325  0.90247721     0.10490
S1223       S  0.25973461  0.77757293  0.81376382    -0.32870
S1224       S  0.36896573  0.67871709  0.91573061    -0.32870
H1225       H  0.34827344  0.67358535  0.95588242     0.28500
H1226       H  0.28958567  0.77680912  0.77940880     0.28490
H1227       H  0.25408331  0.78439181  0.91052427     0.19080
H1228       H  0.39140477  0.73753973  0.85114162     0.19090
C1229       C  0.20508410  0.36035751  0.16741409    -0.06740
C1230       C  0.18241090  0.39380496  0.18908233    -0.17870
C1231       C  0.19963464  0.43200071  0.20245949     0.10460
C1232       C  0.24282704  0.44023845  0.19630801    -0.06670
C1233       C  0.26789516  0.40526256  0.18163690    -0.17900
C1234       C  0.24989436  0.36508895  0.17132734     0.10490
S1235       S  0.16360622  0.46899069  0.22820674    -0.32870
S1236       S  0.28398164  0.32002581  0.17919058    -0.32870
H1237       H  0.25077005  0.29096866  0.18265313     0.28500
H1238       H  0.19172737  0.48040564  0.26075519     0.28490
H1239       H  0.14879032  0.39311459  0.19375727     0.19080
H1240       H  0.30204276  0.40801125  0.18162801     0.19090
C1241       C  0.24195477  0.52421552  0.19356764    -0.06740
C1242       C  0.23018573  0.55830364  0.22068532    -0.17870
C1243       C  0.22019236  0.59882006  0.20406654     0.10460
C1244       C  0.20737047  0.60414000  0.16055435    -0.06670
C1245       C  0.21987842  0.56966458  0.13354736    -0.17900
C1246       C  0.23927745  0.53232854  0.14900403     0.10490
S1247       S  0.22539589  0.64205236  0.24050971    -0.32870
S1248       S  0.26531066  0.49917841  0.10965835    -0.32870
H1249       H  0.29574786  0.48057674  0.13607130     0.28500
H1250       H  0.23217570  0.67323446  0.20912172     0.28490
H1251       H  0.23194299  0.55468569  0.25528602     0.19080
H1252       H  0.21886620  0.57162975  0.09941211     0.19090
C1253       C  0.24386971  0.20131965  0.52703552    -0.06740
C1254       C  0.26366605  0.16944335  0.55063097    -0.17870
C1255       C  0.25001830  0.15929489  0.59280010     0.10460
C1256       C  0.20801351  0.16950086  0.60673795    -0.06670
C1257       C  0.19293844  0.20700823  0.58743844    -0.17900
C1258       C  0.20898496  0.22177419  0.54735166     0.10490
S1259       S  0.29078176  0.14333390  0.62903283    -0.32870
S1260       S  0.18236446  0.26544626  0.52281438    -0.32870
H1261       H  0.16421698  0.23956568  0.49156050     0.28500
H1262       H  0.27067180  0.16527686  0.66307300     0.28490
H1263       H  0.29207548  0.15468584  0.53803471     0.19080
H1264       H  0.16906034  0.22586007  0.60352336     0.19090
C1265       C  0.24695752  0.19692062  0.44218489    -0.06740
C1266       C  0.21939731  0.21995419  0.41602301    -0.17870
C1267       C  0.20540157  0.20612210  0.37495806     0.10460
C1268       C  0.21851232  0.16546065  0.35710773    -0.06670
C1269       C  0.24946888  0.14483318  0.38376554    -0.17900
C1270       C  0.26295872  0.15920332  0.42455404     0.10490
S1271       S  0.16688144  0.24203603  0.35301274    -0.32870
S1272       S  0.30061182  0.12800286  0.45427777    -0.32870
H1273       H  0.30248806  0.09300321  0.42671775     0.28500
H1274       H  0.18716203  0.27919223  0.36561893     0.28490
H1275       H  0.20781347  0.24964292  0.42858384     0.19080
H1276       H  0.25908279  0.11325151  0.37649161     0.19090
C1277       C  0.55246044  0.19422548  0.20015568    -0.06740
C1278       C  0.56270995  0.18973075  0.15646276    -0.17870
C1279       C  0.60248694  0.17656961  0.14093875     0.10460
C1280       C  0.63505830  0.16346852  0.16999734    -0.06670
C1281       C  0.62454559  0.16800017  0.21451187    -0.17900
C1282       C  0.58287468  0.17845822  0.22948138     0.10490
S1283       S  0.60898826  0.17934358  0.08286642    -0.32870
S1284       S  0.57184596  0.17510297  0.28662754    -0.32870
H1285       H  0.52755747  0.17332727  0.28307996     0.28500
H1286       H  0.57797218  0.21039531  0.07509657     0.28490
H1287       H  0.53892265  0.19470784  0.13318674     0.19080
H1288       H  0.64868924  0.16491732  0.23833750     0.19090
C1289       C  0.46992004  0.20576260  0.19474773    -0.06740
C1290       C  0.43760159  0.18690008  0.22085099    -0.17870
C1291       C  0.39808588  0.17420026  0.20315907     0.10460
C1292       C  0.39304375  0.17234673  0.15801879    -0.06670
C1293       C  0.42153657  0.19924279  0.13516333    -0.17900
C1294       C  0.45822358  0.21628771  0.15213474     0.10490
S1295       S  0.35218982  0.16817460  0.23758610    -0.32870
S1296       S  0.48658525  0.25173546  0.11574755    -0.32870
H1297       H  0.51797694  0.26477399  0.14404802     0.28500
H1298       H  0.37557504  0.15136376  0.27195180     0.28490
H1299       H  0.44222064  0.18411290  0.25526013     0.19080
H1300       H  0.41684346  0.20654976  0.10191609     0.19090
C1301       C  0.14564630  0.29995155  0.16708307    -0.06740
C1302       C  0.12604114  0.31632850  0.20510221    -0.17870
C1303       C  0.08596226  0.30318723  0.22091946     0.10460
C1304       C  0.06638481  0.26702394  0.20390486    -0.06670
C1305       C  0.09126536  0.24383350  0.17385517    -0.17900
C1306       C  0.13195970  0.25763645  0.15929712     0.10490
S1307       S  0.06577801  0.32998284  0.26787157    -0.32870
S1308       S  0.16784208  0.21575074  0.14319991    -0.32870
H1309       H  0.20432778  0.23567540  0.15804908     0.28500
H1310       H  0.06398758  0.29305985  0.29295189     0.28490
H1311       H  0.14249600  0.33748204  0.22548554     0.19080
H1312       H  0.08110326  0.21251814  0.16546500     0.19090
C1313       C  0.89565516  0.17917803  0.28686978    -0.06740
C1314       C  0.91263852  0.17093694  0.24509353    -0.17870
C1315       C  0.95661191  0.17450661  0.23445875     0.10460
C1316       C  0.98521288  0.19348580  0.26391101    -0.06670
C1317       C  0.96580191  0.21042148  0.30133841    -0.17900
C1318       C  0.92140383  0.20812131  0.30907731     0.10490
S1319       S  0.97294367  0.15318635  0.18273674    -0.32870
S1320       S  0.89764891  0.25486037  0.33158104    -0.32870
H1321       H  0.86651589  0.25801104  0.29977081     0.28500
H1322       H  0.01496044  0.16691445  0.18256341     0.28490
H1323       H  0.89129160  0.16442162  0.21923357     0.19080
H1324       H  0.98429550  0.23020440  0.32197569     0.19090
C1325       C  0.98272674  0.26218497  0.20653040    -0.06740
C1326       C  0.97397261  0.25103463  0.16417630    -0.17870
C1327       C  0.94929088  0.27908708  0.14057157     0.10460
C1328       C  0.90966515  0.29566778  0.15783619    -0.06670
C1329       C  0.91221493  0.29918800  0.20382213    -0.17900
C1330       C  0.95041830  0.28832155  0.22667170     0.10490
S1331       S  0.98914554  0.31426622  0.12111011    -0.32870
S1332       S  0.95868933  0.31680115  0.27564834    -0.32870
H1333       H  0.99163398  0.29150963  0.29011820     0.28500
H1334       H  0.99746270  0.33183647  0.16154060     0.28490
H1335       H  0.99802356  0.23308570  0.14661728     0.19080
H1336       H  0.88745827  0.31600020  0.22130617     0.19090
C1337       C  0.15122191  0.15468233  0.30188660    -0.06740
C1338       C  0.11230320  0.13223054  0.30044276    -0.17870
C1339       C  0.07628890  0.14764285  0.27796549     0.10460
C1340       C  0.07223864  0.19063391  0.26578171    -0.06670
C1341       C  0.11193561  0.21199317  0.26694530    -0.17900
C1342       C  0.15117167  0.19182423  0.27685209     0.10490
S1343       S  0.04661765  0.10837322  0.25126766    -0.32870
S1344       S  0.20091182  0.21453766  0.25873449    -0.32870
H1345       H  0.18350161  0.25124300  0.24066678     0.28500
H1346       H  0.06377240  0.11930063  0.21057254     0.28490
H1347       H  0.11179051  0.09975084  0.31086615     0.19080
H1348       H  0.11428163  0.24453049  0.26063575     0.19090
C1349       C  0.35580333  0.85589041  0.15816238    -0.06740
C1350       C  0.37978523  0.89384518  0.16034809    -0.17870
C1351       C  0.36732381  0.93001182  0.18343977     0.10460
C1352       C  0.32722850  0.93284039  0.20471017    -0.06670
C1353       C  0.30958199  0.89180137  0.21229702    -0.17900
C1354       C  0.32279423  0.85413068  0.19001703     0.10490
S1355       S  0.41114734  0.96157761  0.19905551    -0.32870
S1356       S  0.30662448  0.80481427  0.21436050    -0.32870
H1357       H  0.33457738  0.77912693  0.19019796     0.28500
H1358       H  0.40025904  0.99562390  0.17277089     0.28490
H1359       H  0.41099233  0.89417075  0.14524768     0.19080
H1360       H  0.29043682  0.88622277  0.24026261     0.19090
C1361       C  0.22165420  0.11100539  0.28606201    -0.06740
C1362       C  0.26340695  0.09732590  0.29587035    -0.17870
C1363       C  0.27710167  0.05472084  0.28966519     0.10460
C1364       C  0.25640832  0.02791303  0.26009015    -0.06670
C1365       C  0.22095885  0.04602216  0.23991198    -0.17900
C1366       C  0.20349803  0.08613666  0.25214319     0.10490
S1367       S  0.31086015  0.03224109  0.33004676    -0.32870
S1368       S  0.16414550  0.10791626  0.21673658    -0.32870
H1369       H  0.15153885  0.06987777  0.19809519     0.28500
H1370       H  0.32340433  0.07026970  0.34872080     0.28490
H1371       H  0.28343448  0.11788279  0.31367822     0.19080
H1372       H  0.20638061  0.02843816  0.21449636     0.19090
C1373       C  0.34540758  0.09830057  0.15570628    -0.06740
C1374       C  0.36246071  0.08436045  0.19553638    -0.17870
C1375       C  0.35246392  0.04638979  0.21679431     0.10460
C1376       C  0.32389464  0.01759248  0.19832025    -0.06670
C1377       C  0.30899454  0.02847683  0.15726031    -0.17900
C1378       C  0.32163852  0.06574310  0.13490873     0.10490
S1379       S  0.38467968  0.03503879  0.26311638    -0.32870
S1380       S  0.31487680  0.06423225  0.07732431    -0.32870
H1381       H  0.27555987  0.04375009  0.07919346     0.28500
H1382       H  0.36901715  0.99464580  0.27185185     0.28490
H1383       H  0.38941521  0.09975013  0.20835559     0.19080
H1384       H  0.28940748  0.00594219  0.14113399     0.19090
C1385       C  0.24700697  0.94535908  0.26566054    -0.06740
C1386       C  0.25428799  0.93213214  0.30800091    -0.17870
C1387       C  0.23386637  0.89698824  0.32752563     0.10460
C1388       C  0.20613739  0.87028821  0.30312456    -0.06670
C1389       C  0.20621424  0.88011025  0.25816468    -0.17900
C1390       C  0.22120040  0.91875054  0.24058487     0.10490
S1391       S  0.24665214  0.88883517  0.38351774    -0.32870
S1392       S  0.21144807  0.92796834  0.18401501    -0.32870
H1393       H  0.22985036  0.96764477  0.17994620     0.28500
H1394       H  0.28749981  0.90619255  0.38172330     0.28490
H1395       H  0.27646740  0.95000963  0.32640875     0.19080
H1396       H  0.19553907  0.85744373  0.23524242     0.19090
C1397       C  0.23601055  0.26086862  0.93475182    -0.06740
C1398       C  0.24981397  0.30134111  0.92455371    -0.17870
C1399       C  0.24007366  0.32216658  0.88565090     0.10460
C1400       C  0.20874845  0.30499785  0.85696838    -0.06670
C1401       C  0.20102595  0.26142525  0.86410883    -0.17900
C1402       C  0.21295112  0.24002431  0.90243982     0.10490
S1403       S  0.26710580  0.37202479  0.87921414    -0.32870
S1404       S  0.19542890  0.18682261  0.90925651    -0.32870
H1405       H  0.17693894  0.19490744  0.94993104     0.28500
H1406       H  0.30351030  0.36122536  0.90253291     0.28490
H1407       H  0.26871025  0.31761070  0.94758389     0.19080
H1408       H  0.18238199  0.24404475  0.84148886     0.19090
C1409       C  0.29384319  0.19176371  0.02283165    -0.06740
C1410       C  0.33065397  0.21005244  0.03866188    -0.17870
C1411       C  0.34224902  0.20399705  0.08173974     0.10460
C1412       C  0.33063796  0.16642871  0.10354571    -0.06670
C1413       C  0.28950659  0.15324455  0.09266591    -0.17900
C1414       C  0.27041084  0.16639733  0.05323281     0.10490
S1415       S  0.34599013  0.25229094  0.11194577    -0.32870
S1416       S  0.21710878  0.14897651  0.04438740    -0.32870
H1417       H  0.21573771  0.15923281  0.00056664     0.28500
H1418       H  0.33217563  0.23495911  0.15160412     0.28490
H1419       H  0.34734450  0.23322964  0.01958554     0.19080
H1420       H  0.27266839  0.13157842  0.11359288     0.19090
C1421       C  0.23528144  0.26179413  0.01927869    -0.06740
C1422       C  0.19279435  0.25712259  0.03133266    -0.17870
C1423       C  0.17444995  0.27718288  0.06793194     0.10460
C1424       C  0.20011253  0.29810402  0.09988425    -0.06670
C1425       C  0.24304974  0.30316141  0.08605795    -0.17900
C1426       C  0.25977140  0.28803128  0.04602794     0.10490
S1427       S  0.11711938  0.28162163  0.06682652    -0.32870
S1428       S  0.30901586  0.31155862  0.02796937    -0.32870
H1429       H  0.31570583  0.28860550  0.98997110     0.28500
H1430       H  0.10969876  0.24557243  0.04200116     0.28490
H1431       H  0.17270993  0.24044112  0.00944669     0.19080
H1432       H  0.26167451  0.32669209  0.10085620     0.19090
C1433       C  0.29898287  0.18697046  0.93685607    -0.06740
C1434       C  0.31008653  0.21145181  0.89996023    -0.17870
C1435       C  0.32506845  0.19348616  0.86040192     0.10460
C1436       C  0.34200570  0.15179200  0.85961493    -0.06670
C1437       C  0.33227762  0.12796376  0.89749199    -0.17900
C1438       C  0.30767667  0.14336288  0.93272012     0.10490
S1439       S  0.31934444  0.22439880  0.81193924    -0.32870
S1440       S  0.28610778  0.10531791  0.97018674    -0.32870
H1441       H  0.29597361  0.06917477  0.94582015     0.28500
H1442       H  0.28888768  0.25198503  0.82980783     0.28490
H1443       H  0.30665448  0.24507349  0.90096190     0.19080
H1444       H  0.34590546  0.09738890  0.90185149     0.19090
C1445       C  0.65399360  0.65619209  0.67283637    -0.06740
C1446       C  0.63730033  0.64841367  0.71515658    -0.17870
C1447       C  0.59404198  0.65670342  0.72729592     0.10460
C1448       C  0.57060867  0.68867434  0.70600356    -0.06670
C1449       C  0.58675822  0.69885081  0.66465285    -0.17900
C1450       C  0.62214068  0.67631851  0.64604482     0.10490
S1451       S  0.56969373  0.62139621  0.76653050    -0.32870
S1452       S  0.61912915  0.66624728  0.58853950    -0.32870
H1453       H  0.58016770  0.68658002  0.58116025     0.28500
H1454       H  0.52827429  0.63744351  0.76530945     0.28490
H1455       H  0.65355092  0.62759509  0.73612388     0.19080
H1456       H  0.56726380  0.71864381  0.64443912     0.19090
C1457       C  0.73146237  0.60498590  0.68080068    -0.06740
C1458       C  0.75881363  0.57667142  0.65651414    -0.17870
C1459       C  0.76688545  0.53423260  0.66726387     0.10460
C1460       C  0.75423166  0.51796482  0.70785699    -0.06670
C1461       C  0.73447389  0.54812391  0.73622709    -0.17900
C1462       C  0.72635055  0.59123236  0.72421489     0.10490
S1463       S  0.79113123  0.50288688  0.62458687    -0.32870
S1464       S  0.72667435  0.62936645  0.76694009    -0.32870
H1465       H  0.72909939  0.66470189  0.73949214     0.28500
H1466       H  0.80340746  0.46782190  0.64836439     0.28490
H1467       H  0.76872134  0.58466451  0.62424930     0.19080
H1468       H  0.72824510  0.53922319  0.76938165     0.19090
C1469       C  0.72492053  0.67024291  0.62365886    -0.06740
C1470       C  0.70394686  0.70391249  0.60238739    -0.17870
C1471       C  0.71301721  0.71620658  0.55883797     0.10460
C1472       C  0.74835242  0.69876991  0.53557592    -0.06670
C1473       C  0.77559630  0.67338981  0.56077258    -0.17900
C1474       C  0.76629839  0.66308080  0.60493786     0.10490
S1475       S  0.67621256  0.75330146  0.53554010    -0.32870
S1476       S  0.81144330  0.65278332  0.63813372    -0.32870
H1477       H  0.79067716  0.66527421  0.67656130     0.28500
H1478       H  0.69593841  0.75846479  0.49501380     0.28490
H1479       H  0.67896284  0.72079194  0.61902799     0.19080
H1480       H  0.80587076  0.66377163  0.54695140     0.19090
C1481       C  0.48150612  0.27083318  0.69347037    -0.06740
C1482       C  0.47762054  0.27338009  0.64831339    -0.17870
C1483       C  0.44302624  0.29460524  0.62724893     0.10460
C1484       C  0.40854808  0.31437771  0.65163261    -0.06670
C1485       C  0.40884477  0.30161926  0.69565022    -0.17900
C1486       C  0.44627019  0.28788955  0.71671679     0.10490
S1487       S  0.44202009  0.28829212  0.56954435    -0.32870
S1488       S  0.45061670  0.30468895  0.77134209    -0.32870
H1489       H  0.49000626  0.32376274  0.76452611     0.28500
H1490       H  0.47202119  0.25551689  0.56557151     0.28490
H1491       H  0.50240625  0.25845077  0.62914783     0.19080
H1492       H  0.38135520  0.30765911  0.71598232     0.19090
C1493       C  0.33913323  0.36096919  0.67333745    -0.06740
C1494       C  0.29529164  0.36906024  0.66629569    -0.17870
C1495       C  0.27583882  0.40953819  0.67497201     0.10460
C1496       C  0.29789050  0.44175395  0.69772508    -0.06670
C1497       C  0.33597506  0.42872527  0.71486459    -0.17900
C1498       C  0.35582511  0.39005443  0.70547497     0.10490
S1499       S  0.22534381  0.41946941  0.65089193    -0.32870
S1500       S  0.40282097  0.38587573  0.73759409    -0.32870
H1501       H  0.43322711  0.37651164  0.70610759     0.28500
H1502       H  0.23010494  0.46324598  0.64812835     0.28490
H1503       H  0.27786027  0.34636263  0.64806337     0.19080
H1504       H  0.35058380  0.44904059  0.73758768     0.19090
C1505       C  0.35039164  0.31811663  0.59318729    -0.06740
C1506       C  0.33301107  0.27752334  0.59904728    -0.17870
C1507       C  0.32367768  0.25149775  0.56293871     0.10460
C1508       C  0.31405607  0.26997317  0.52217015    -0.06670
C1509       C  0.33353729  0.30902674  0.51550228    -0.17900
C1510       C  0.35613368  0.32983489  0.54764555     0.10490
S1511       S  0.35367404  0.20314484  0.56337284    -0.32870
S1512       S  0.39099101  0.36973612  0.52378791    -0.32870
H1513       H  0.42424006  0.36831111  0.55302679     0.28500
H1514       H  0.35500543  0.19762762  0.51829952     0.28490
H1515       H  0.33550030  0.26306833  0.63062257     0.19080
H1516       H  0.33453405  0.32270129  0.48356854     0.19090
C1517       C  0.68752356  0.36693519  0.31051456    -0.06740
C1518       C  0.73282015  0.36405441  0.30526087    -0.17870
C1519       C  0.75960743  0.39807612  0.29208896     0.10460
C1520       C  0.74236521  0.43764470  0.27912287    -0.06670
C1521       C  0.69769895  0.43976943  0.28135107    -0.17900
C1522       C  0.67095098  0.40613767  0.29390145     0.10490
S1523       S  0.81566510  0.38883347  0.29676095    -0.32870
S1524       S  0.61668184  0.41762323  0.28201128    -0.32870
H1525       H  0.61842443  0.39274278  0.24453030     0.28500
H1526       H  0.82494456  0.43023011  0.30782768     0.28490
H1527       H  0.74882565  0.33515029  0.31396310     0.19080
H1528       H  0.68185959  0.46794880  0.27126119     0.19090
C1529       C  0.72500912  0.26085234  0.44201257    -0.06740
C1530       C  0.72411168  0.30456669  0.43811423    -0.17870
C1531       C  0.71258974  0.32574783  0.40035745     0.10460
C1532       C  0.69444837  0.30355500  0.36411108    -0.06670
C1533       C  0.69762560  0.25911339  0.36713853    -0.17900
C1534       C  0.71009807  0.23789270  0.40579227     0.10490
S1535       S  0.72579401  0.38120569  0.40330402    -0.32870
S1536       S  0.70403616  0.18152606  0.40674868    -0.32870
H1537       H  0.71487653  0.17440646  0.44981901     0.28500
H1538       H  0.69189204  0.40010624  0.38326166     0.28490
H1539       H  0.73607356  0.32339844  0.46384425     0.19080
H1540       H  0.68613562  0.24021834  0.34115349     0.19090
C1541       C  0.55567577  0.27907296  0.25041284    -0.06740
C1542       C  0.59879880  0.26655237  0.24132178    -0.17870
C1543       C  0.63406387  0.27982609  0.26651852     0.10460
C1544       C  0.62802355  0.31038542  0.29901628    -0.06670
C1545       C  0.58649537  0.32950372  0.29817336    -0.17900
C1546       C  0.55297116  0.31699963  0.27293486     0.10490
S1547       S  0.68516529  0.25683332  0.25549634    -0.32870
S1548       S  0.51191002  0.35570760  0.26232972    -0.32870
H1549       H  0.52590444  0.38858389  0.28853605     0.28500
H1550       H  0.70871752  0.29117884  0.26888592     0.28490
H1551       H  0.60646254  0.24928420  0.21261530     0.19080
H1552       H  0.57827849  0.35561723  0.31791577     0.19090
C1553       C  0.40407065  0.66618949  0.30068896    -0.06740
C1554       C  0.40686833  0.67957205  0.25705489    -0.17870
C1555       C  0.44686221  0.68740206  0.23548301     0.10460
C1556       C  0.48571914  0.69200185  0.25874529    -0.06670
C1557       C  0.48235146  0.67853073  0.30115515    -0.17900
C1558       C  0.44437133  0.67050834  0.32304613     0.10490
S1559       S  0.44756729  0.66960709  0.18073038    -0.32870
S1560       S  0.45408468  0.66292633  0.38013213    -0.32870
H1561       H  0.48222461  0.69657614  0.38445586     0.28500
H1562       H  0.48765038  0.65026648  0.18385751     0.28490
H1563       H  0.37901257  0.67870367  0.23768066     0.19080
H1564       H  0.51043683  0.67257611  0.31888325     0.19090
C1565       C  0.34330034  0.66649486  0.36084606    -0.06740
C1566       C  0.36685507  0.69603829  0.38458979    -0.17870
C1567       C  0.35443263  0.71306931  0.42510059     0.10460
C1568       C  0.31253274  0.70760783  0.44108813    -0.06670
C1569       C  0.28511223  0.68672417  0.41296251    -0.17900
C1570       C  0.29922657  0.66943335  0.37276504     0.10490
S1571       S  0.39137616  0.74941730  0.44831778    -0.32870
S1572       S  0.25806795  0.66141746  0.33525740    -0.32870
H1573       H  0.28179283  0.67934480  0.30103773     0.28500
H1574       H  0.36468146  0.76800733  0.47945879     0.28490
H1575       H  0.39284421  0.71172365  0.36905508     0.19080
H1576       H  0.25149678  0.68692341  0.42050086     0.19090
C1577       C  0.33131797  0.60754675  0.29863635    -0.06740
C1578       C  0.33018637  0.60148756  0.25337395    -0.17870
C1579       C  0.32302255  0.56115887  0.23459800     0.10460
C1580       C  0.30812081  0.52649802  0.26002869    -0.06670
C1581       C  0.30098967  0.53471491  0.30370090    -0.17900
C1582       C  0.31062780  0.57366653  0.32297053     0.10490
S1583       S  0.33802678  0.55547160  0.17848893    -0.32870
S1584       S  0.29873480  0.57553623  0.38029913    -0.32870
H1585       H  0.26497710  0.54692415  0.38059902     0.28500
H1586       H  0.34436730  0.51187856  0.17985989     0.28490
H1587       H  0.34116136  0.62579636  0.23201812     0.19080
H1588       H  0.28749802  0.50979680  0.32335074     0.19090
C1589       C  0.70256054  0.65915526  0.37063678    -0.06740
C1590       C  0.74389989  0.67574684  0.36961787    -0.17870
C1591       C  0.76587385  0.68489604  0.40829834     0.10460
C1592       C  0.74389175  0.69321499  0.44830110    -0.06670
C1593       C  0.70137501  0.68086327  0.44893119    -0.17900
C1594       C  0.68156218  0.66176115  0.41316678     0.10490
S1595       S  0.82052053  0.66903568  0.40715245    -0.32870
S1596       S  0.63167266  0.63582541  0.42685632    -0.32870
H1597       H  0.62185735  0.65726664  0.46543886     0.28500
H1598       H  0.81959447  0.65397134  0.44993167     0.28490
H1599       H  0.76160078  0.67588213  0.33948510     0.19080
H1600       H  0.68411938  0.68297009  0.47920976     0.19090
C1601       C  0.64699876  0.65729432  0.30943100    -0.06740
C1602       C  0.61499886  0.68038392  0.33250536    -0.17870
C1603       C  0.58060943  0.70194343  0.31222174     0.10460
C1604       C  0.57157834  0.69467819  0.26754518    -0.06670
C1605       C  0.60606107  0.67597961  0.24482100    -0.17900
C1606       C  0.64562509  0.66750920  0.26466765     0.10490
S1607       S  0.55317158  0.74038245  0.34571007    -0.32870
S1608       S  0.69283616  0.67631636  0.23218276    -0.32870
H1609       H  0.71814934  0.68695330  0.26734412     0.28500
H1610       H  0.51791926  0.74780696  0.32011980     0.28490
H1611       H  0.61858752  0.68678275  0.36592835     0.19080
H1612       H  0.60358919  0.66995469  0.21089755     0.19090
C1613       C  0.75018500  0.52093600  0.27670752    -0.06740
C1614       C  0.71541356  0.53690251  0.25504292    -0.17870
C1615       C  0.69619751  0.57597405  0.26454257     0.10460
C1616       C  0.71426124  0.60517857  0.29581539    -0.06670
C1617       C  0.75643617  0.59290422  0.30680977    -0.17900
C1618       C  0.77171537  0.55077657  0.30218724     0.10490
S1619       S  0.64908620  0.58315233  0.23280203    -0.32870
S1620       S  0.81650688  0.53674210  0.33407123    -0.32870
H1621       H  0.80645265  0.49395919  0.33683972     0.28500
H1622       H  0.63597405  0.54090927  0.23291223     0.28490
H1623       H  0.70300493  0.51807371  0.22918239     0.19080
H1624       H  0.77448464  0.61200095  0.32798711     0.19090
C1625       C  0.33753617  0.36065502  0.29561397    -0.06740
C1626       C  0.36477459  0.39013024  0.27449320    -0.17870
C1627       C  0.35153148  0.43017143  0.26022603     0.10460
C1628       C  0.30856997  0.44253499  0.26310377    -0.06670
C1629       C  0.28012920  0.41175407  0.27957965    -0.17900
C1630       C  0.29351931  0.37047985  0.29159060     0.10490
S1631       S  0.39182340  0.46438166  0.23895422    -0.32870
S1632       S  0.25318823  0.33059871  0.29065364    -0.32870
H1633       H  0.28149562  0.29780655  0.27980716     0.28500
H1634       H  0.38695054  0.49274821  0.27343969     0.28490
H1635       H  0.39818628  0.38313370  0.27104760     0.19080
H1636       H  0.24650963  0.41866407  0.27983793     0.19090
C1637       C  0.32561814  0.29870747  0.35534340    -0.06740
C1638       C  0.29249227  0.31731647  0.38030220    -0.17870
C1639       C  0.28163257  0.30265489  0.42194690     0.10460
C1640       C  0.30192554  0.26610996  0.43835084    -0.06670
C1641       C  0.32557669  0.24186066  0.40876226    -0.17900
C1642       C  0.33298881  0.25605812  0.36632390     0.10490
S1643       S  0.24329060  0.33390142  0.45203726    -0.32870
S1644       S  0.34418998  0.21657182  0.32710582    -0.32870
H1645       H  0.33146288  0.24147463  0.29197217     0.28500
H1646       H  0.25005286  0.31733419  0.49316581     0.28490
H1647       H  0.27937845  0.34743427  0.37113141     0.19080
H1648       H  0.33610134  0.21063464  0.41788111     0.19090
C1649       C  0.39474250  0.29855229  0.30450530    -0.06740
C1650       C  0.39995426  0.30171113  0.25913367    -0.17870
C1651       C  0.43844859  0.29212250  0.23743570     0.10460
C1652       C  0.47161678  0.27027032  0.25879144    -0.06670
C1653       C  0.46342256  0.25903616  0.30198184    -0.17900
C1654       C  0.42674456  0.27281215  0.32530247     0.10490
S1655       S  0.44411742  0.31532411  0.18473887    -0.32870
S1656       S  0.42743881  0.25729550  0.38186360    -0.32870
H1657       H  0.40191302  0.28929608  0.39929393     0.28500
H1658       H  0.48844156  0.31762640  0.18482616     0.28490
H1659       H  0.37529020  0.31588155  0.24007897     0.19080
H1660       H  0.48727080  0.24076564  0.31863781     0.19090
C1661       C  0.71545759  0.35595136  0.67918756    -0.06740
C1662       C  0.69693376  0.38045086  0.71251866    -0.17870
C1663       C  0.71261277  0.42006573  0.72478592     0.10460
C1664       C  0.75338246  0.43255908  0.71082846    -0.06670
C1665       C  0.77844378  0.39978633  0.69148865    -0.17900
C1666       C  0.76027668  0.36061334  0.67870695     0.10490
S1667       S  0.67979474  0.45163741  0.76043570    -0.32870
S1668       S  0.79541169  0.31585911  0.67243760    -0.32870
H1669       H  0.76372117  0.28566221  0.67967179     0.28500
H1670       H  0.71298951  0.46800509  0.78453622     0.28490
H1671       H  0.67106163  0.36794952  0.73110199     0.19080
H1672       H  0.81233952  0.40382350  0.68789983     0.19090
C1673       C  0.56567003  0.26876997  0.69951753    -0.06740
C1674       C  0.57128596  0.31163482  0.70375438    -0.17870
C1675       C  0.60920452  0.33239528  0.69241185     0.10460
C1676       C  0.64718844  0.30887031  0.67668581    -0.06670
C1677       C  0.64253488  0.26484283  0.68136548    -0.17900
C1678       C  0.60194802  0.24552783  0.68509766     0.10490
S1679       S  0.59967303  0.38831995  0.70272539    -0.32870
S1680       S  0.59727079  0.19491316  0.66005550    -0.32870
H1681       H  0.55285837  0.19551096  0.65746538     0.28500
H1682       H  0.63301317  0.40883577  0.68300953     0.28490
H1683       H  0.54429528  0.32988355  0.71532055     0.19080
H1684       H  0.67009688  0.24478115  0.67712645     0.19090
C1685       C  0.71160076  0.29964369  0.61050211    -0.06740
C1686       C  0.69443009  0.26061539  0.59527275    -0.17870
C1687       C  0.70514381  0.24144112  0.55500460     0.10460
C1688       C  0.73458823  0.25990400  0.52633063    -0.06670
C1689       C  0.75358571  0.29635050  0.54057641    -0.17900
C1690       C  0.74350733  0.31613385  0.58022379     0.10490
S1691       S  0.67750922  0.19457116  0.54036710    -0.32870
S1692       S  0.77197442  0.36459970  0.58423348    -0.32870
H1693       H  0.81114945  0.34948202  0.56811463     0.28500
H1694       H  0.66780857  0.20957959  0.49893484     0.28490
H1695       H  0.66772042  0.24620178  0.61039574     0.19080
H1696       H  0.77625964  0.31099890  0.51886175     0.19090
C1697       C  0.68203862  0.52388538  0.58370851    -0.06740
C1698       C  0.67638867  0.52366245  0.62796935    -0.17870
C1699       C  0.66557942  0.56233581  0.64584810     0.10460
C1700       C  0.68253869  0.59996241  0.62506543    -0.06670
C1701       C  0.70327146  0.59422368  0.58410523    -0.17900
C1702       C  0.71068358  0.55364465  0.56871541     0.10490
S1703       S  0.63051613  0.55995993  0.69241743    -0.32870
S1704       S  0.74086104  0.54608142  0.52004616    -0.32870
H1705       H  0.73187237  0.50289355  0.51729439     0.28500
H1706       H  0.62629478  0.51620889  0.69709119     0.28490
H1707       H  0.66464623  0.49573626  0.64355021     0.19080
H1708       H  0.71469138  0.61959052  0.56444962     0.19090
C1709       C  0.37451188  0.47693118  0.62726715    -0.06740
C1710       C  0.33951567  0.45659911  0.61176800    -0.17870
C1711       C  0.34182952  0.41458705  0.60044832     0.10460
C1712       C  0.37707081  0.38843070  0.61560001    -0.06670
C1713       C  0.41224643  0.40974203  0.63123968    -0.17900
C1714       C  0.40896328  0.45245444  0.64216913     0.10490
S1715       S  0.29736248  0.40115012  0.56616883    -0.32870
S1716       S  0.44628939  0.47496240  0.67882303    -0.32870
H1717       H  0.47218402  0.43907373  0.68316475     0.28500
H1718       H  0.28566334  0.36151198  0.58095751     0.28490
H1719       H  0.31323322  0.47565294  0.60026793     0.19080
H1720       H  0.43998729  0.39192562  0.63998593     0.19090
C1721       C  0.62970138  0.33312556  0.37170913    -0.06740
C1722       C  0.61537313  0.37277702  0.38203802    -0.17870
C1723       C  0.57786492  0.37656342  0.40449457     0.10460
C1724       C  0.56475824  0.34510351  0.43399595    -0.06670
C1725       C  0.58057154  0.30508352  0.42764694    -0.17900
C1726       C  0.60735766  0.29772536  0.39202253     0.10490
S1727       S  0.54533214  0.41880315  0.38887765    -0.32870
S1728       S  0.60487824  0.24512176  0.37003780    -0.32870
H1729       H  0.57145025  0.23003025  0.39630929     0.28500
H1730       H  0.51043055  0.40119329  0.41021290     0.28490
H1731       H  0.62655717  0.39968659  0.36454270     0.19080
H1732       H  0.57007982  0.27973518  0.44859066     0.19090
C1733       C  0.46522420  0.56072000  0.35913902    -0.06740
C1734       C  0.45530383  0.55765050  0.31671255    -0.17870
C1735       C  0.42027195  0.57881487  0.30257495     0.10460
C1736       C  0.39326990  0.60088469  0.33406987    -0.06670
C1737       C  0.39694759  0.58952956  0.37725259    -0.17900
C1738       C  0.43308960  0.56883724  0.39027058     0.10490
S1739       S  0.42062762  0.58381075  0.24448248    -0.32870
S1740       S  0.43673970  0.55847536  0.44655228    -0.32870
H1741       H  0.47564421  0.53976802  0.44596488     0.28500
H1742       H  0.46478451  0.58725891  0.23828455     0.28490
H1743       H  0.47861605  0.54505096  0.29390425     0.19080
H1744       H  0.37618089  0.60291412  0.40155218     0.19090
C1745       C  0.67611908  0.58831799  0.35752181    -0.06740
C1746       C  0.71118545  0.57282904  0.38233403    -0.17870
C1747       C  0.71672057  0.53086235  0.39236822     0.10460
C1748       C  0.68152790  0.50588980  0.39160573    -0.06670
C1749       C  0.64797068  0.51744646  0.36406124    -0.17900
C1750       C  0.64425652  0.55897352  0.34820102     0.10490
S1751       S  0.76318084  0.51408606  0.42099972    -0.32870
S1752       S  0.59723639  0.57458219  0.32060575    -0.32870
H1753       H  0.58831478  0.53407187  0.30527773     0.28500
H1754       H  0.75300422  0.47111479  0.42074674     0.28490
H1755       H  0.73755900  0.59254899  0.39028108     0.19080
H1756       H  0.62111605  0.49669364  0.36165023     0.19090
C1757       C  0.38081449  0.35655205  0.36090608    -0.06740
C1758       C  0.35419582  0.38376739  0.38573390    -0.17870
C1759       C  0.35858462  0.42691122  0.38421264     0.10460
C1760       C  0.39749712  0.44275520  0.37073162    -0.06670
C1761       C  0.42408524  0.41744749  0.34486816    -0.17900
C1762       C  0.42038737  0.37412547  0.34858641     0.10490
S1763       S  0.31759581  0.45973058  0.40785431    -0.32870
S1764       S  0.46930663  0.34797573  0.36016261    -0.32870
H1765       H  0.45793679  0.34162056  0.40384353     0.28500
H1766       H  0.33896658  0.49747883  0.39910034     0.28490
H1767       H  0.33064402  0.37292240  0.40812172     0.19080
H1768       H  0.45447187  0.42944956  0.33379197     0.19090
C1769       C  0.58647109  0.39855081  0.60398186    -0.06740
C1770       C  0.62471255  0.42042346  0.60289705    -0.17870
C1771       C  0.66255966  0.39908926  0.60941100     0.10460
C1772       C  0.66082170  0.35526422  0.61507498    -0.06670
C1773       C  0.62653559  0.33512095  0.59480040    -0.17900
C1774       C  0.58786454  0.35590276  0.59272785     0.10490
S1775       S  0.70855312  0.43016046  0.61544959    -0.32870
S1776       S  0.54122918  0.32572150  0.58346634    -0.32870
H1777       H  0.56168019  0.29024100  0.56546664     0.28500
H1778       H  0.70771321  0.44336770  0.57208238     0.28490
H1779       H  0.62500602  0.45374363  0.60382644     0.19080
H1780       H  0.62582610  0.30147999  0.59188514     0.19090
C1781       C  0.40331105  0.66065209  0.66689334    -0.06740
C1782       C  0.44399681  0.64275716  0.65647970    -0.17870
C1783       C  0.48278393  0.65456777  0.67472855     0.10460
C1784       C  0.48449509  0.68559133  0.70790932    -0.06670
C1785       C  0.44325401  0.69357995  0.72682607    -0.17900
C1786       C  0.40377783  0.68268935  0.70690763     0.10490
S1787       S  0.52696539  0.62243042  0.65701667    -0.32870
S1788       S  0.35589641  0.69394067  0.73692192    -0.32870
H1789       H  0.33961789  0.65340048  0.73196833     0.28500
H1790       H  0.52167401  0.63329656  0.61349341     0.28490
H1791       H  0.44647028  0.61879873  0.63218411     0.19080
H1792       H  0.44091376  0.70664611  0.75878315     0.19090
C1793       C  0.32752699  0.67851913  0.61396067    -0.06740
C1794       C  0.30110727  0.65800296  0.58271949    -0.17870
C1795       C  0.29303653  0.67282593  0.54092240     0.10460
C1796       C  0.30867197  0.71178024  0.52672139    -0.06670
C1797       C  0.32660489  0.73713198  0.55962067    -0.17900
C1798       C  0.33295702  0.72209591  0.60300102     0.10490
S1799       S  0.25925484  0.64062733  0.50829458    -0.32870
S1800       S  0.34053021  0.76107904  0.64393899    -0.32870
H1801       H  0.31600857  0.73956968  0.67487116     0.28500
H1802       H  0.23399301  0.67361439  0.49260942     0.28490
H1803       H  0.29310035  0.62549632  0.58578415     0.19080
H1804       H  0.33297373  0.76982600  0.55246205     0.19090
C1805       C  0.34222380  0.60524060  0.65812000    -0.06740
C1806       C  0.36338405  0.57832708  0.68832040    -0.17870
C1807       C  0.34318935  0.54311812  0.70978928     0.10460
C1808       C  0.30373728  0.52656523  0.69504980    -0.06670
C1809       C  0.28545773  0.55143782  0.66258282    -0.17900
C1810       C  0.29876856  0.59351633  0.65510685     0.10490
S1811       S  0.36734162  0.52551676  0.75880894    -0.32870
S1812       S  0.25732399  0.63193700  0.66327548    -0.32870
H1813       H  0.28211300  0.66016249  0.68637155     0.28500
H1814       H  0.32956581  0.51077151  0.77804614     0.28490
H1815       H  0.39461122  0.58647642  0.69892523     0.19080
H1816       H  0.25652595  0.54118964  0.64838273     0.19090
C1817       C  0.38641420  0.64322586  0.59181202    -0.06740
C1818       C  0.37402989  0.61040242  0.56431560    -0.17870
C1819       C  0.38085790  0.61402887  0.51964004     0.10460
C1820       C  0.41039910  0.64395359  0.50396823    -0.06670
C1821       C  0.40976848  0.68142071  0.52590897    -0.17900
C1822       C  0.40709202  0.67936078  0.57091421     0.10490
S1823       S  0.34733765  0.58555463  0.48389470    -0.32870
S1824       S  0.43741660  0.72114839  0.59505102    -0.32870
H1825       H  0.41505030  0.72786683  0.63298509     0.28500
H1826       H  0.32679744  0.56082288  0.51553032     0.28490
H1827       H  0.35327169  0.58622545  0.57651655     0.19080
H1828       H  0.42755793  0.70718630  0.51185972     0.19090
loop_ 
_geom_bond_atom_site_label_1 
_geom_bond_atom_site_label_2 
_geom_bond_distance 
_geom_bond_site_symmetry_2 
_ccdc_geom_bond_type 
C1         C1781   1.636       .  S
C1         C1793   1.647       .  S
C1         C1805   1.658       .  S
C1         C1817   1.564       .  S
C2           N20   1.332       .  A
C2           C39   1.453       .  S
C2         C1820   1.464       .  S
N3           N20   1.296       .  A
N3           N25   1.322       .  A
N3          Co40   2.058       .  S
C4           N29   1.326       .  A
C4           C42   1.438       .  S
C4           H49   1.064       .  S
H5           C46   1.078       .  S
C6           N30   1.329       .  A
C6           C10   1.469       .  S
C6           H35   1.080       .  S
Co7          N25   2.029       .  S
Co7          N15   2.023       .  S
Co7          N47   1.978       .  S
Co7          N23   2.099       .  S
Co7         Cl51   2.438       .  S
N8           C46   1.319       .  A
N8           N15   1.309       .  A
N8           Co9   2.031       .  S
Co9          N12   2.127       .  S
Co9          N29   1.987       .  S
Co9          N16   2.066       .  S
Co9         Cl51   2.296       .  S
C10          N48   1.342       .  A
C10        C1760   1.458       .  S
N11          N18   1.310       .  A
N11          N41   1.305       .  A
N11         Co44   2.054       .  S
N12          N30   1.303       .  A
N12          N48   1.313       .  A
N13          C42   1.348       .  A
N13          N23   1.309       .  A
H14          C39   1.070       .  S
N15          N36   1.311       .  A
N16          N34   1.298       .  A
N16          N21   1.306       .  A
C17          N21   1.335       .  A
C17          C45   1.478       .  S
C17        C1724   1.462       .  S
N18          C33   1.327       .  A
N18         Co40   2.026       .  S
C19          N47   1.305       .  A
C19          C22   1.449       .  S
C19          H53   1.079       .  S
C22          N43   1.348       .  A
C22        C1697   1.465       .  S
N23          N29   1.308       .  A
N24          C50   1.332       .  A
N24          N26   1.319       .  A
N24         Co40   2.065       .  S
N25          C39   1.341       .  A
N26          N54   1.310       .  A
N26         Co44   2.036       .  S
H27          C50   1.079       .  S
H28          C45   1.081       .  S
N30         Co44   1.958       .  S
N31          N43   1.310       .  A
N31          N47   1.307       .  A
N31         Co40   2.027       .  S
C32          N36   1.344       .  A
C32          C46   1.427       .  S
C32        C1733   1.432       .  S
C33          C52   1.450       .  S
C33          H37   1.076       .  S
N34          C45   1.344       .  A
N34         Co44   2.068       .  S
C38          N54   1.331       .  A
C38          C50   1.464       .  S
C38        C1769   1.472       .  S
Co40        Cl51   2.321       .  S
N41          C52   1.347       .  A
C42        C1748   1.450       .  S
Co44        Cl51   2.458       .  S
C52        C1709   1.454       .  S
C55        C1661   1.627       .  S
C55        C1676   1.650       .  S
C55        C1685   1.651       .  S
C55        C1772   1.541       .  S
C56        C1625   1.623       .  S
C56        C1637   1.600       .  S
C56        C1649   1.612       .  S
C56        C1757   1.570       .  S
C57        C1589   1.632       .  S
C57        C1601   1.634       .  S
C57        C1616   1.642       .  S
C57        C1745   1.564       .  S
C58        C1553   1.642       .  S
C58        C1565   1.648       .  S
C58        C1577   1.631       .  S
C58        C1736   1.535       .  S
C59        C1517   1.647       .  S
C59        C1532   1.609       .  S
C59        C1544   1.619       .  S
C59        C1721   1.552       .  S
C60        C1484   1.651       .  S
C60        C1493   1.641       .  S
C60        C1505   1.608       .  S
C60        C1712   1.555       .  S
C61        C1445   1.655       .  S
C61        C1457   1.656       .  S
C61        C1469   1.651       .  S
C61        C1700   1.536       .  S
C62          C63   1.396       .  D
C62        C1409   1.539   1_556  S
C62        C1433   1.559       .  S
C63        C1397   1.534       .  S
C63        C1421   1.536   1_556  S
C64          C65   1.409       .  D
C64        C1352   1.598       .  S
C64        C1376   1.543   1_565  S
C65        C1364   1.565   1_565  S
C65        C1385   1.531       .  S
C66          C67   1.404       .  D
C66        C1304   1.536       .  S
C66        C1325   1.559   1_455  S
C67        C1316   1.547   1_455  S
C67        C1340   1.597       .  S
C68          C69   1.393       .  D
C68        C1541   1.573       .  S
C68        C1652   1.545       .  S
C69        C1277   1.534       .  S
C69        C1289   1.536       .  S
C70          C71   1.393       .  D
C70        C1508   1.567       .  S
C70        C1640   1.514       .  S
C71        C1253   1.512       .  S
C71        C1265   1.548       .  S
C72          C73   1.394       .  D
C72        C1580   1.549       .  S
C72        C1628   1.546       .  S
C73        C1232   1.554       .  S
C73        C1241   1.551       .  S
C74          C75   1.404       .  D
C74        C1208   1.577   1_556  S
C74        C1217   1.567       .  S
C75        C1181   1.568   1_556  S
C75        C1193   1.564       .  S
C76          C77   1.408       .  D
C76        C1157   1.564   1_556  S
C76        C1169   1.563       .  S
C77        C1133   1.516   1_556  S
C77        C1145   1.563       .  S
C78          C79   1.382       .  D
C78        C1112   1.528   1_455  S
C78        C1121   1.548       .  S
C79        C1085   1.531       .  S
C79        C1097   1.545   1_455  S
C80          C81   1.415       .  D
C80        C1520   1.571       .  S
C80        C1613   1.555       .  S
C81        C1064   1.567       .  S
C81        C1076   1.591       .  S
C82          C83   1.417       .  D
C82        C1037   1.574       .  S
C82        C1049   1.559       .  S
C83        C1496   1.561       .  S
C83        C1808   1.583       .  S
C84         C989   1.639       .  S
C84        C1001   1.620       .  S
C84        C1013   1.646       .  S
C84        C1025   1.563       .  S
C85         N103   1.324       .  A
C85         C122   1.454       .  S
C85         C941   1.416   1_455  S
N86         N103   1.292       .  A
N86         N108   1.302       .  A
N86        Co123   1.942       .  S
C87         N112   1.337       .  A
C87         C125   1.474       .  S
C87         H132   1.082       .  S
H88         C129   1.067   1_655  S
C89         N113   1.315       .  A
C89          C93   1.466       .  S
C89         H118   1.082       .  S
Co90        N108   2.052       .  S
Co90         N98   2.049   1_556  S
Co90        N130   2.015       .  S
Co90        N106   2.018   1_556  S
Co90       Cl134   2.361       .  S
N91         C129   1.324       .  A
N91          N98   1.312       .  A
N91         Co92   2.055       .  S
Co92         N95   2.023   1_455  S
Co92        N112   2.035       .  S
Co92         N99   2.024       .  S
Co92       Cl134   2.418   1_554  S
C93         N131   1.346       .  A
C93         C932   1.454       .  S
N94         N101   1.310       .  A
N94         N124   1.308       .  A
N94        Co127   2.033       .  S
N95         N113   1.304       .  A
N95         N131   1.311       .  A
N96         C125   1.339       .  A
N96         N106   1.306       .  A
H97         C122   1.081       .  S
N98         N119   1.321       .  A
N99         N117   1.320   1_455  A
N99         N104   1.294       .  A
C100        N104   1.323       .  A
C100        C128   1.426       .  S
C100        C917   1.428       .  S
N101        C116   1.329       .  A
N101       Co123   2.048   1_655  S
C102        N130   1.316       .  A
C102        C105   1.458       .  S
C102        H136   1.079       .  S
C105        N126   1.346       .  A
C105        C965   1.479       .  S
N106        N112   1.298       .  A
N107        C133   1.304       .  A
N107        N109   1.300   1_455  A
N107       Co123   1.975       .  S
N108        C122   1.341       .  A
N109        N137   1.320       .  A
N109       Co127   2.067       .  S
H110        C133   1.079       .  S
H111        C128   1.072   1_655  S
N113       Co127   2.001   1_554  S
N114        N126   1.305       .  A
N114        N130   1.311       .  A
N114       Co123   2.055       .  S
C115        N119   1.335       .  A
C115        C129   1.454       .  S
C115        C977   1.477   1_455  S
C116        C135   1.485       .  S
C116        H120   1.082       .  S
N117        C128   1.346   1_655  A
N117       Co127   2.038   1_554  S
C121        N137   1.346   1_455  A
C121        C133   1.448       .  S
C121        C953   1.466       .  S
Co123      Cl134   2.420       .  S
N124        C135   1.342       .  A
C125        C905   1.486       .  S
Co127      Cl134   2.402   1_655  S
C135       C1028   1.484       .  S
C138        C980   1.563       .  S
C138       C1073   1.656       .  S
C138       C1160   1.614       .  S
C138       C1328   1.653       .  S
C139        C968   1.553       .  S
C139       C1052   1.625       .  S
C139       C1124   1.618       .  S
C139       C1400   1.623       .  S
C140        C896   1.610       .  S
C140        C956   1.565       .  S
C140       C1040   1.623       .  S
C140       C1196   1.638       .  S
C141        C881   1.650       .  S
C141        C944   1.555       .  S
C141       C1109   1.615       .  S
C141       C1172   1.626       .  S
C142        C857   1.647       .  S
C142        C872   1.648       .  S
C142        C929   1.562       .  S
C142       C1061   1.649       .  S
C143        C144   1.386       .  D
C143       C1460   1.562       .  S
C143       C1664   1.545       .  S
C144        C884   1.559       .  S
C144       C1016   1.534       .  S
C145        C848   1.634       .  S
C145        C920   1.559       .  S
C145       C1184   1.644       .  S
C145       C1244   1.616       .  S
C146        C908   1.574       .  S
C146       C1229   1.655       .  S
C146       C1301   1.636       .  S
C146       C1424   1.627       .  S
C147        C148   1.395       .  D
C147        C821   1.556   1_565  S
C147        C833   1.544       .  S
C148        C797   1.544       .  S
C148        C809   1.523   1_565  S
C149        C150   1.411       .  D
C149        C776   1.558       .  S
C149        C785   1.551       .  S
C150       C1556   1.582       .  S
C150       C1604   1.585       .  S
C151        C152   1.407       .  D
C151       C1481   1.575       .  S
C151       C1673   1.544       .  S
C152        C752   1.536       .  S
C152        C761   1.554       .  S
C153        C725   1.607       .  S
C153        C740   1.597       .  S
C153        C764   1.664       .  S
C153       C1148   1.620       .  S
C154        N172   1.348       .  A
C154        C191   1.465       .  S
C154        C689   1.478       .  S
N155        N172   1.311       .  A
N155        N177   1.301       .  A
N155       Co192   2.036   1_545  S
C156        N181   1.323   1_565  A
C156        C194   1.448       .  S
C156        H201   1.068       .  S
H157        C198   1.078       .  S
C158        N182   1.332       .  A
C158        C162   1.454       .  S
C158        H187   1.079       .  S
Co159       N177   1.984       .  S
Co159       N167   2.065   1_556  S
Co159       N199   2.088       .  S
Co159       N175   2.046   1_556  S
Co159      Cl203   2.387   1_545  S
N160        C198   1.328       .  A
N160        N167   1.306       .  A
N160       Co161   2.020   1_545  S
Co161       N164   1.988       .  S
Co161       N181   2.056   1_565  S
Co161       N168   2.014       .  S
Co161      Cl203   2.434   1_554  S
C162        N200   1.341       .  A
C162        C641   1.423   1_565  S
N163        N170   1.302       .  A
N163        N193   1.328       .  A
N163       Co196   2.138   1_556  S
N164        N182   1.303       .  A
N164        N200   1.292       .  A
N165        C194   1.342   1_545  A
N165        N175   1.320       .  A
H166        C191   1.080       .  S
N167        N188   1.313       .  A
N168        N186   1.307       .  A
N168        N173   1.320       .  A
C169        N173   1.351       .  A
C169        C197   1.465       .  S
C169        C713   1.469       .  S
N170        C185   1.309       .  A
N170       Co192   1.950       .  S
C171        N199   1.350   1_565  A
C171        C174   1.468       .  S
C171        H205   1.081   1_565  S
C174        N195   1.331       .  A
C174        C701   1.437       .  S
N175        N181   1.311       .  A
N176        C202   1.335       .  A
N176        N178   1.303       .  A
N176       Co192   2.032       .  S
N177        C191   1.314       .  A
N178        N206   1.310       .  A
N178       Co196   2.031   1_556  S
H179        C202   1.081       .  S
H180        C197   1.079       .  S
N182       Co196   2.000       .  S
N183        N195   1.292       .  A
N183        N199   1.311   1_565  A
N183       Co192   1.978       .  S
C184        N188   1.353       .  A
C184        C198   1.466       .  S
C184        C653   1.505       .  S
C185        C204   1.438       .  S
C185        H189   1.080       .  S
N186        C197   1.301       .  A
N186       Co196   2.046       .  S
C190        N206   1.327       .  A
C190        C202   1.472       .  S
C190        C677   1.458       .  S
Co192      Cl203   2.426       .  S
N193        C204   1.372       .  A
C194        C665   1.467       .  S
Co196      Cl203   2.301   1_554  S
C204        C737   1.470   1_565  S
C207        C617   1.619       .  S
C207        C629   1.620       .  S
C207        C716   1.562       .  S
C207        C788   1.620       .  S
C208        C608   1.630       .  S
C208        C704   1.553       .  S
C208        C836   1.656       .  S
C208       C1220   1.620       .  S
C209        C692   1.551       .  S
C209        C749   1.635       .  S
C209        C824   1.607       .  S
C209       C1436   1.609       .  S
C210        C569   1.678       .  S
C210        C581   1.675       .  S
C210        C593   1.652       .  S
C210        C680   1.558       .  S
C211        C668   1.602       .  S
C211        C773   1.700       .  S
C211       C1205   1.648       .  S
C211       C1349   1.622       .  S
C212        C213   1.432       .  D
C212       C1448   1.560       .  S
C212       C1784   1.605       .  S
C213        C596   1.585       .  S
C213        C605   1.564       .  S
C214        C656   1.554       .  S
C214       C1292   1.629       .  S
C214       C1373   1.630       .  S
C214       C1412   1.613       .  S
C215        C557   1.622       .  S
C215        C644   1.554       .  S
C215       C1136   1.615       .  S
C215       C1280   1.588       .  S
C216        C217   1.402       .  D
C216        C533   1.573       .  S
C216        C545   1.587   1_455  S
C217        C845   1.555       .  S
C217        C869   1.557   1_455  S
C218        C219   1.399       .  D
C218        C560   1.537   1_565  S
C218        C632   1.546       .  S
C219        C509   1.579       .  S
C219        C521   1.557   1_565  S
C220        C221   1.395       .  D
C220        C485   1.564       .  S
C220        C497   1.572       .  S
C221       C1529   1.541       .  S
C221       C1688   1.539       .  S
C222        C223   1.396       .  D
C222       C1568   1.539       .  S
C222       C1796   1.549       .  S
C223        C461   1.568       .  S
C223        C476   1.547       .  S
C224        C452   1.551       .  S
C224        C488   1.645       .  S
C224        C524   1.630       .  S
C224       C1313   1.631       .  S
C225        N243   1.341       .  A
C225        C262   1.440       .  S
C225        C449   1.491   1_455  S
N226        N243   1.309       .  A
N226        N248   1.306       .  A
N226       Co263   2.020       .  S
C227        N252   1.308       .  A
C227        C265   1.436       .  S
C227        H272   1.071       .  S
H228        C269   1.080       .  S
C229        N253   1.340       .  A
C229        C233   1.444       .  S
C229        H258   1.071       .  S
Co230       N248   2.068   1_655  S
Co230       N238   1.943       .  S
Co230       N270   2.040       .  S
Co230       N246   2.094   1_545  S
Co230      Cl274   2.388   1_645  S
N231        C269   1.348       .  A
N231        N238   1.301   1_455  A
N231       Co232   2.108   1_545  S
Co232       N235   1.976       .  S
Co232       N252   1.989   1_455  S
Co232       N239   2.055       .  S
Co232      Cl274   2.419       .  S
C233        N271   1.323       .  A
C233        C365   1.416   1_565  S
N234        N241   1.307   1_565  A
N234        N264   1.317       .  A
N234       Co267   2.035       .  S
N235        N253   1.313       .  A
N235        N271   1.298       .  A
N236        C265   1.353       .  A
N236        N246   1.329       .  A
H237        C262   1.077   1_655  S
N238        N259   1.298   1_655  A
N239        N257   1.303       .  A
N239        N244   1.320   1_455  A
C240        N244   1.356   1_455  A
C240        C268   1.452       .  S
C240        C413   1.469       .  S
N241        C256   1.319       .  A
N241       Co263   2.005       .  S
C242        N270   1.332       .  A
C242        C245   1.426   1_545  S
C242        H276   1.075       .  S
C245        N266   1.347       .  A
C245        C440   1.454       .  S
N246        N252   1.306       .  A
N247        C273   1.325   1_455  A
N247        N249   1.304       .  A
N247       Co263   2.005   1_565  S
N248        C262   1.336       .  A
N249        N277   1.301       .  A
N249       Co267   2.013       .  S
H250        C273   1.078       .  S
H251        C268   1.083       .  S
N253       Co267   2.079       .  S
N254        N266   1.310   1_545  A
N254        N270   1.306       .  A
N254       Co263   2.043   1_655  S
C255        N259   1.326       .  A
C255        C269   1.496       .  S
C255        C401   1.468       .  S
C256        C275   1.446       .  S
C256        H260   1.075       .  S
N257        C268   1.324       .  A
N257       Co267   2.025       .  S
C261        N277   1.343       .  A
C261        C273   1.465   1_455  S
C261        C425   1.447       .  S
Co263      Cl274   2.423   1_545  S
N264        C275   1.334   1_565  A
C265        C389   1.461       .  S
Co267      Cl274   2.349       .  S
C275        C377   1.457       .  S
C278        C353   1.627       .  S
C278        C437   1.565       .  S
C278        C512   1.635       .  S
C278        C548   1.624       .  S
C279        C428   1.532       .  S
C279        C464   1.623       .  S
C279        C536   1.652       .  S
C279       C1388   1.627       .  S
C280        C341   1.614       .  S
C280        C416   1.539       .  S
C280        C473   1.594       .  S
C280        C800   1.639       .  S
C281        C332   1.607       .  S
C281        C404   1.560       .  S
C281        C500   1.665       .  S
C281       C1100   1.667       .  S
C282        C293   1.613       .  S
C282        C305   1.616       .  S
C282        C317   1.644       .  S
C282        C392   1.582       .  S
C283        C284   1.405       .  D
C283       C1472   1.561       .  S
C283       C1592   1.574       .  S
C284        C320   1.574       .  S
C284        C356   1.570       .  S
C285        C380   1.558       .  S
C285       C1268   1.657       .  S
C285       C1337   1.600       .  S
C285       C1361   1.642       .  S
C286        C368   1.530       .  S
C286        C812   1.630       .  S
C286       C1088   1.614       .  S
C286       C1256   1.606       .  S
C287        C288   1.418       .  D
C287        C893   1.578       .  S
C287       C1004   1.611   1_455  S
C288        C296   1.546   1_455  S
C288        C344   1.543       .  S
C289        C290   1.407       .  D
C289        C308   1.548       .  S
C289        C329   1.569   1_565  S
C290        C572   1.573       .  S
C290        C728   1.556   1_565  S
C291        C292   1.426       .  D
C291        C860   1.606   1_556  S
C291        C992   1.552       .  S
C292        C584   1.573       .  S
C292        C620   1.559   1_556  S
C293        C294   1.417       .  A
C293        C298   1.450       .  A
C294        H303   1.075       .  S
C294        C295   1.411       .  A
C295        C296   1.416       .  A
C295        S299   1.780       .  S
C296        C297   1.409       .  A
C297        H304   1.083       .  S
C297        C298   1.426       .  A
C298        S300   1.806       .  S
S299        H302   1.407       .  S
S300        H301   1.401       .  S
C305        C306   1.427       .  A
C305        C310   1.428       .  A
C306        H315   1.079       .  S
C306        C307   1.410       .  A
C307        C308   1.414       .  A
C307        S311   1.800       .  S
C308        C309   1.419       .  A
C309        H316   1.082       .  S
C309        C310   1.428       .  A
C310        S312   1.801       .  S
S311        H314   1.390       .  S
S312        H313   1.403       .  S
C317        C318   1.435       .  A
C317        C322   1.442       .  A
C318        H327   1.079       .  S
C318        C319   1.432       .  A
C319        C320   1.430       .  A
C319        S323   1.803       .  S
C320        C321   1.413       .  A
C321        H328   1.077       .  S
C321        C322   1.427       .  A
C322        S324   1.791       .  S
S323        H326   1.392       .  S
S324        H325   1.394       .  S
C329        C330   1.409       .  A
C329        C334   1.431       .  A
C330        H339   1.077       .  S
C330        C331   1.427       .  A
C331        C332   1.448       .  A
C331        S335   1.807       .  S
C332        C333   1.407       .  A
C333        H340   1.082       .  S
C333        C334   1.417       .  A
C334        S336   1.795       .  S
S335        H338   1.406       .  S
S336        H337   1.400       .  S
C341        C342   1.425       .  A
C341        C346   1.435       .  A
C342        H351   1.066       .  S
C342        C343   1.410       .  A
C343        C344   1.423       .  A
C343        S347   1.806       .  S
C344        C345   1.408       .  A
C345        H352   1.084       .  S
C345        C346   1.423       .  A
C346        S348   1.811       .  S
S347        H350   1.395       .  S
S348        H349   1.407       .  S
C353        C354   1.429       .  A
C353        C358   1.437       .  A
C354        H363   1.077       .  S
C354        C355   1.427       .  A
C355        C356   1.422       .  A
C355        S359   1.802       .  S
C356        C357   1.421       .  A
C357        H364   1.081       .  S
C357        C358   1.441       .  A
C358        S360   1.793       .  S
S359        H362   1.399       .  S
S360        H361   1.406       .  S
C365        C366   1.382       .  A
C365        C370   1.410       .  A
C366        H375   1.085       .  S
C366        C367   1.365       .  A
C367        C368   1.438       .  A
C367        S371   1.808       .  S
C368        C369   1.403       .  A
C369        H376   1.082       .  S
C369        C370   1.384       .  A
C370        S372   1.798       .  S
S371        H374   1.408       .  S
S372        H373   1.392       .  S
C377        C378   1.394       .  A
C377        C382   1.364       .  A
C378        H387   1.073       .  S
C378        C379   1.394       .  A
C379        C380   1.434       .  A
C379        S383   1.807       .  S
C380        C381   1.425       .  A
C381        H388   1.064       .  S
C381        C382   1.393       .  A
C382        S384   1.778   1_545  S
S383        H386   1.407       .  S
S384        H385   1.401       .  S
C389        C390   1.396       .  A
C389        C394   1.399       .  A
C390        H399   1.076       .  S
C390        C391   1.401       .  A
C391        C392   1.423       .  A
C391        S395   1.809       .  S
C392        C393   1.415       .  A
C393        H400   1.076       .  S
C393        C394   1.398       .  A
C394        S396   1.774       .  S
S395        H398   1.408       .  S
S396        H397   1.402       .  S
C401        C402   1.372   1_455  A
C401        C406   1.419   1_455  A
C402        H411   1.084   1_655  S
C402        C403   1.394       .  A
C403        C404   1.457       .  A
C403        S407   1.805       .  S
C404        C405   1.412       .  A
C405        H412   1.080       .  S
C405        C406   1.401       .  A
C406        S408   1.801       .  S
S407        H410   1.408       .  S
S408        H409   1.403   1_655  S
C413        C414   1.416       .  A
C413        C418   1.406       .  A
C414        H423   1.059       .  S
C414        C415   1.381       .  A
C415        C416   1.342       .  A
C415        S419   1.772       .  S
C416        C417   1.431       .  A
C417        H424   1.073       .  S
C417        C418   1.391       .  A
C418        S420   1.809       .  S
S419        H422   1.408       .  S
S420        H421   1.402       .  S
C425        C426   1.406       .  A
C425        C430   1.397       .  A
C426        H435   1.081       .  S
C426        C427   1.387       .  A
C427        C428   1.419       .  A
C427        S431   1.806       .  S
C428        C429   1.427       .  A
C429        H436   1.078       .  S
C429        C430   1.366       .  A
C430        S432   1.810       .  S
S431        H434   1.407       .  S
S432        H433   1.406       .  S
C437        C438   1.439       .  A
C437        C442   1.407       .  A
C438        H447   1.070       .  S
C438        C439   1.391       .  A
C439        C440   1.386       .  A
C439        S443   1.805       .  S
C440        C441   1.408       .  A
C441        H448   1.081       .  S
C441        C442   1.393       .  A
C442        S444   1.792       .  S
S443        H446   1.407       .  S
S444        H445   1.388       .  S
C449        C450   1.403       .  A
C449        C454   1.460       .  A
C450        H459   1.075   1_655  S
C450        C451   1.378       .  A
C451        C452   1.390       .  A
C451        S455   1.794       .  S
C452        C453   1.384       .  A
C453        H460   1.081       .  S
C453        C454   1.404       .  A
C454        S456   1.845       .  S
S455        H458   1.408       .  S
S456        H457   1.403       .  S
C461        C462   1.401       .  A
C461        C466   1.442       .  A
C462        H471   1.083       .  S
C462        C463   1.406       .  A
C463        C464   1.466       .  A
C463        S467   1.825       .  S
C464        C465   1.412       .  A
C465        H472   1.084       .  S
C465        C466   1.427       .  A
C466        S468   1.789       .  S
S467        H470   1.403       .  S
S468        H469   1.399       .  S
C473        C474   1.429       .  A
C473        C478   1.397       .  A
C474        H483   1.076       .  S
C474        C475   1.406       .  A
C475        C476   1.409       .  A
C475        S479   1.796       .  S
C476        C477   1.425       .  A
C477        H484   1.072       .  S
C477        C478   1.414       .  A
C478        S480   1.788       .  S
S479        H482   1.405       .  S
S480        H481   1.407       .  S
C485        C486   1.392       .  A
C485        C490   1.459       .  A
C486        H495   1.075       .  S
C486        C487   1.394       .  A
C487        C488   1.437       .  A
C487        S491   1.824       .  S
C488        C489   1.423       .  A
C489        H496   1.082       .  S
C489        C490   1.447       .  A
C490        S492   1.799       .  S
S491        H494   1.380       .  S
S492        H493   1.405       .  S
C497        C498   1.410       .  A
C497        C502   1.420       .  A
C498        H507   1.084       .  S
C498        C499   1.434       .  A
C499        C500   1.453       .  A
C499        S503   1.803       .  S
C500        C501   1.408       .  A
C501        H508   1.072       .  S
C501        C502   1.432       .  A
C502        S504   1.798       .  S
S503        H506   1.405       .  S
S504        H505   1.404       .  S
C509        C510   1.443       .  A
C509        C514   1.406       .  A
C510        H519   1.075       .  S
C510        C511   1.448       .  A
C511        C512   1.421       .  A
C511        S515   1.797       .  S
C512        C513   1.427       .  A
C513        H520   1.070       .  S
C513        C514   1.389       .  A
C514        S516   1.799       .  S
S515        H518   1.399       .  S
S516        H517   1.402       .  S
C521        C522   1.412       .  A
C521        C526   1.412       .  A
C522        H531   1.081       .  S
C522        C523   1.432       .  A
C523        C524   1.445       .  A
C523        S527   1.791       .  S
C524        C525   1.434       .  A
C525        H532   1.053       .  S
C525        C526   1.414       .  A
C526        S528   1.815       .  S
S527        H530   1.406       .  S
S528        H529   1.401   1_545  S
C533        C534   1.421       .  A
C533        C538   1.418       .  A
C534        H543   1.082       .  S
C534        C535   1.433       .  A
C535        C536   1.438       .  A
C535        S539   1.788       .  S
C536        C537   1.447       .  A
C537        H544   1.074       .  S
C537        C538   1.425       .  A
C538        S540   1.813       .  S
S539        H542   1.407       .  S
S540        H541   1.407       .  S
C545        C546   1.391       .  A
C545        C550   1.430       .  A
C546        H555   1.056   1_655  S
C546        C547   1.416       .  A
C547        C548   1.442       .  A
C547        S551   1.789       .  S
C548        C549   1.424       .  A
C549        H556   1.080       .  S
C549        C550   1.431       .  A
C550        S552   1.806       .  S
S551        H554   1.408       .  S
S552        H553   1.408       .  S
C557        C558   1.434       .  A
C557        C562   1.417       .  A
C558        H567   1.070       .  S
C558        C559   1.425       .  A
C559        C560   1.421       .  A
C559        S563   1.807       .  S
C560        C561   1.411       .  A
C561        H568   1.076       .  S
C561        C562   1.412       .  A
C562        S564   1.803       .  S
S563        H566   1.399   1_545  S
S564        H565   1.407       .  S
C569        C570   1.424       .  A
C569        C574   1.457       .  A
C570        H579   1.080       .  S
C570        C571   1.426       .  A
C571        C572   1.431       .  A
C571        S575   1.800       .  S
C572        C573   1.408       .  A
C573        H580   1.084       .  S
C573        C574   1.435       .  A
C574        S576   1.805       .  S
S575        H578   1.394       .  S
S576        H577   1.402       .  S
C581        C582   1.453       .  A
C581        C586   1.444       .  A
C582        H591   1.066       .  S
C582        C583   1.423       .  A
C583        C584   1.403       .  A
C583        S587   1.799       .  S
C584        C585   1.410       .  A
C585        H592   1.069       .  S
C585        C586   1.433       .  A
C586        S588   1.788       .  S
S587        H590   1.403       .  S
S588        H589   1.406       .  S
C593        C594   1.413       .  A
C593        C598   1.478       .  A
C594        H603   1.069       .  S
C594        C595   1.437       .  A
C595        C596   1.430       .  A
C595        S599   1.796       .  S
C596        C597   1.405       .  A
C597        H604   1.083       .  S
C597        C598   1.425       .  A
C598        S600   1.821       .  S
S599        H602   1.406       .  S
S600        H601   1.385       .  S
C605        C606   1.406       .  A
C605        C610   1.426       .  A
C606        H615   1.080       .  S
C606        C607   1.427       .  A
C607        C608   1.447       .  A
C607        S611   1.807       .  S
C608        C609   1.424       .  A
C609        H616   1.082       .  S
C609        C610   1.432       .  A
C610        S612   1.798       .  S
S611        H614   1.405       .  S
S612        H613   1.405       .  S
C617        C618   1.423       .  A
C617        C622   1.442       .  A
C618        H627   1.083       .  S
C618        C619   1.434       .  A
C619        C620   1.435       .  A
C619        S623   1.806       .  S
C620        C621   1.407       .  A
C621        H628   1.083   1_554  S
C621        C622   1.410       .  A
C622        S624   1.803       .  S
S623        H626   1.399       .  S
S624        H625   1.384       .  S
C629        C630   1.424       .  A
C629        C634   1.433       .  A
C630        H639   1.078       .  S
C630        C631   1.423       .  A
C631        C632   1.421       .  A
C631        S635   1.798       .  S
C632        C633   1.412       .  A
C633        H640   1.083       .  S
C633        C634   1.422       .  A
C634        S636   1.795       .  S
S635        H638   1.406       .  S
S636        H637   1.407       .  S
C641        C642   1.399       .  A
C641        C646   1.408       .  A
C642        H651   1.086   1_545  S
C642        C643   1.390       .  A
C643        C644   1.402       .  A
C643        S647   1.806       .  S
C644        C645   1.399       .  A
C645        H652   1.076       .  S
C645        C646   1.375       .  A
C646        S648   1.777       .  S
S647        H650   1.404       .  S
S648        H649   1.407       .  S
C653        C654   1.419       .  A
C653        C658   1.428       .  A
C654        H663   1.085       .  S
C654        C655   1.397       .  A
C655        C656   1.402       .  A
C655        S659   1.787       .  S
C656        C657   1.404       .  A
C657        H664   1.072       .  S
C657        C658   1.388       .  A
C658        S660   1.806       .  S
S659        H662   1.407   1_554  S
S660        H661   1.408       .  S
C665        C666   1.410       .  A
C665        C670   1.384       .  A
C666        H675   1.082       .  S
C666        C667   1.403       .  A
C667        C668   1.419       .  A
C667        S671   1.793       .  S
C668        C669   1.440       .  A
C669        H676   1.071       .  S
C669        C670   1.385       .  A
C670        S672   1.799       .  S
S671        H674   1.394       .  S
S672        H673   1.406       .  S
C677        C678   1.415       .  A
C677        C682   1.372       .  A
C678        H687   1.066       .  S
C678        C679   1.402       .  A
C679        C680   1.396       .  A
C679        S683   1.792       .  S
C680        C681   1.441       .  A
C681        H688   1.065       .  S
C681        C682   1.377       .  A
C682        S684   1.802       .  S
S683        H686   1.405       .  S
S684        H685   1.406       .  S
C689        C690   1.392       .  A
C689        C694   1.413       .  A
C690        H699   1.080       .  S
C690        C691   1.395       .  A
C691        C692   1.429       .  A
C691        S695   1.814       .  S
C692        C693   1.415       .  A
C693        H700   1.075       .  S
C693        C694   1.388       .  A
C694        S696   1.811       .  S
S695        H698   1.406       .  S
S696        H697   1.406       .  S
C701        C702   1.407       .  A
C701        C706   1.400       .  A
C702        H711   1.085       .  S
C702        C703   1.400       .  A
C703        C704   1.418       .  A
C703        S707   1.810       .  S
C704        C705   1.413       .  A
C705        H712   1.073       .  S
C705        C706   1.397       .  A
C706        S708   1.794       .  S
S707        H710   1.406       .  S
S708        H709   1.408       .  S
C713        C714   1.391       .  A
C713        C718   1.406       .  A
C714        H723   1.069       .  S
C714        C715   1.390       .  A
C715        C716   1.441       .  A
C715        S719   1.821       .  S
C716        C717   1.422       .  A
C717        H724   1.076       .  S
C717        C718   1.398       .  A
C718        S720   1.806       .  S
S719        H722   1.406       .  S
S720        H721   1.406       .  S
C725        C726   1.419       .  A
C725        C730   1.406       .  A
C726        H735   1.079       .  S
C726        C727   1.425       .  A
C727        C728   1.424       .  A
C727        S731   1.796       .  S
C728        C729   1.424       .  A
C729        H736   1.083       .  S
C729        C730   1.434       .  A
C730        S732   1.805       .  S
S731        H734   1.401   1_545  S
S732        H733   1.408       .  S
C737        C738   1.393       .  A
C737        C742   1.370       .  A
C738        H747   1.081   1_545  S
C738        C739   1.395       .  A
C739        C740   1.422       .  A
C739        S743   1.782       .  S
C740        C741   1.450       .  A
C741        H748   1.074       .  S
C741        C742   1.396       .  A
C742        S744   1.800       .  S
S743        H746   1.408       .  S
S744        H745   1.406       .  S
C749        C750   1.429       .  A
C749        C754   1.461       .  A
C750        H759   1.073       .  S
C750        C751   1.412       .  A
C751        C752   1.413       .  A
C751        S755   1.808       .  S
C752        C753   1.401       .  A
C753        H760   1.082       .  S
C753        C754   1.429       .  A
C754        S756   1.809       .  S
S755        H758   1.394       .  S
S756        H757   1.407       .  S
C761        C762   1.400       .  A
C761        C766   1.419       .  A
C762        H771   1.084       .  S
C762        C763   1.428       .  A
C763        C764   1.466       .  A
C763        S767   1.823       .  S
C764        C765   1.441       .  A
C765        H772   1.071       .  S
C765        C766   1.424       .  A
C766        S768   1.808       .  S
S767        H770   1.385       .  S
S768        H769   1.393       .  S
C773        C774   1.446       .  A
C773        C778   1.482       .  A
C774        H783   1.056       .  S
C774        C775   1.428       .  A
C775        C776   1.413       .  A
C775        S779   1.811       .  S
C776        C777   1.395       .  A
C777        H784   1.080       .  S
C777        C778   1.433       .  A
C778        S780   1.808       .  S
S779        H782   1.399       .  S
S780        H781   1.409       .  S
C785        C786   1.419       .  A
C785        C790   1.418       .  A
C786        H795   1.079       .  S
C786        C787   1.428       .  A
C787        C788   1.428       .  A
C787        S791   1.793       .  S
C788        C789   1.436       .  A
C789        H796   1.079       .  S
C789        C790   1.410       .  A
C790        S792   1.799       .  S
S791        H794   1.399       .  S
S792        H793   1.381       .  S
C797        C798   1.402       .  A
C797        C802   1.412       .  A
C798        H807   1.084       .  S
C798        C799   1.424       .  A
C799        C800   1.470       .  A
C799        S803   1.824       .  S
C800        C801   1.427       .  A
C801        H808   1.080       .  S
C801        C802   1.407       .  A
C802        S804   1.799       .  S
S803        H806   1.381       .  S
S804        H805   1.403       .  S
C809        C810   1.382       .  A
C809        C814   1.417       .  A
C810        H819   1.085       .  S
C810        C811   1.401       .  A
C811        C812   1.478       .  A
C811        S815   1.830       .  S
C812        C813   1.426       .  A
C813        H820   1.062       .  S
C813        C814   1.422       .  A
C814        S816   1.803       .  S
S815        H818   1.376       .  S
S816        H817   1.405       .  S
C821        C822   1.425       .  A
C821        C826   1.412       .  A
C822        H831   1.080       .  S
C822        C823   1.427       .  A
C823        C824   1.412       .  A
C823        S827   1.785       .  S
C824        C825   1.425       .  A
C825        H832   1.069       .  S
C825        C826   1.411       .  A
C826        S828   1.800   1_545  S
S827        H830   1.406       .  S
S828        H829   1.408   1_565  S
C833        C834   1.394       .  A
C833        C838   1.414       .  A
C834        H843   1.083       .  S
C834        C835   1.419       .  A
C835        C836   1.476       .  A
C835        S839   1.817       .  S
C836        C837   1.440       .  A
C837        H844   1.070       .  S
C837        C838   1.427       .  A
C838        S840   1.810       .  S
S839        H842   1.406       .  S
S840        H841   1.401       .  S
C845        C846   1.404       .  A
C845        C850   1.428       .  A
C846        H855   1.084       .  S
C846        C847   1.426       .  A
C847        C848   1.465       .  A
C847        S851   1.812       .  S
C848        C849   1.418       .  A
C849        H856   1.077       .  S
C849        C850   1.425       .  A
C850        S852   1.800       .  S
S851        H854   1.403       .  S
S852        H853   1.400       .  S
C857        C858   1.429       .  A
C857        C862   1.427       .  A
C858        H867   1.078       .  S
C858        C859   1.411       .  A
C859        C860   1.432       .  A
C859        S863   1.795   1_554  S
C860        C861   1.439       .  A
C861        H868   1.071       .  S
C861        C862   1.451       .  A
C862        S864   1.803       .  S
S863        H866   1.407       .  S
S864        H865   1.399       .  S
C869        C870   1.399       .  A
C869        C874   1.428       .  A
C870        H879   1.081   1_655  S
C870        C871   1.423       .  A
C871        C872   1.449       .  A
C871        S875   1.772       .  S
C872        C873   1.432       .  A
C873        H880   1.079       .  S
C873        C874   1.437       .  A
C874        S876   1.805       .  S
S875        H878   1.401       .  S
S876        H877   1.404   1_655  S
C881        C882   1.437       .  A
C881        C886   1.432       .  A
C882        H891   1.057       .  S
C882        C883   1.412       .  A
C883        C884   1.403       .  A
C883        S887   1.801       .  S
C884        C885   1.423       .  A
C885        H892   1.080       .  S
C885        C886   1.438       .  A
C886        S888   1.776       .  S
S887        H890   1.408       .  S
S888        H889   1.407       .  S
C893        C894   1.437       .  A
C893        C898   1.429       .  A
C894        H903   1.074       .  S
C894        C895   1.431       .  A
C895        C896   1.381       .  A
C895        S899   1.782       .  S
C896        C897   1.424       .  A
C897        H904   1.067       .  S
C897        C898   1.419       .  A
C898        S900   1.813       .  S
S899        H902   1.379       .  S
S900        H901   1.399       .  S
C905        C906   1.423       .  A
C905        C910   1.417       .  A
C906        H915   1.080       .  S
C906        C907   1.391       .  A
C907        C908   1.406       .  A
C907        S911   1.785       .  S
C908        C909   1.422       .  A
C909        H916   1.075       .  S
C909        C910   1.380       .  A
C910        S912   1.820       .  S
S911        H914   1.399       .  S
S912        H913   1.399       .  S
C917        C918   1.386       .  A
C917        C922   1.420       .  A
C918        H927   1.085       .  S
C918        C919   1.397       .  A
C919        C920   1.427       .  A
C919        S923   1.815       .  S
C920        C921   1.412       .  A
C921        H928   1.071       .  S
C921        C922   1.375       .  A
C922        S924   1.775   1_554  S
S923        H926   1.400       .  S
S924        H925   1.399       .  S
C929        C930   1.441       .  A
C929        C934   1.431       .  A
C930        H939   1.078       .  S
C930        C931   1.393       .  A
C931        C932   1.382       .  A
C931        S935   1.804       .  S
C932        C933   1.398       .  A
C933        H940   1.083       .  S
C933        C934   1.395       .  A
C934        S936   1.802       .  S
S935        H938   1.407       .  S
S936        H937   1.407       .  S
C941        C942   1.419       .  A
C941        C946   1.382       .  A
C942        H951   1.077       .  S
C942        C943   1.411       .  A
C943        C944   1.418       .  A
C943        S947   1.810       .  S
C944        C945   1.385       .  A
C945        H952   1.028       .  S
C945        C946   1.338       .  A
C946        S948   1.798   1_655  S
S947        H950   1.391       .  S
S948        H949   1.409       .  S
C953        C954   1.407       .  A
C953        C958   1.371       .  A
C954        H963   1.068       .  S
C954        C955   1.399       .  A
C955        C956   1.410       .  A
C955        S959   1.790       .  S
C956        C957   1.431       .  A
C957        H964   1.048       .  S
C957        C958   1.385       .  A
C958        S960   1.804       .  S
S959        H962   1.402       .  S
S960        H961   1.408       .  S
C965        C966   1.404       .  A
C965        C970   1.424       .  A
C966        H975   1.081       .  S
C966        C967   1.383       .  A
C967        C968   1.391       .  A
C967        S971   1.807       .  S
C968        C969   1.396       .  A
C969        H976   1.055       .  S
C969        C970   1.390       .  A
C970        S972   1.811       .  S
S971        H974   1.404       .  S
S972        H973   1.404       .  S
C977        C978   1.376       .  A
C977        C982   1.388       .  A
C978        H987   1.084       .  S
C978        C979   1.405       .  A
C979        C980   1.475       .  A
C979        S983   1.806       .  S
C980        C981   1.394       .  A
C981        H988   1.071       .  S
C981        C982   1.381       .  A
C982        S984   1.754       .  S
S983        H986   1.390       .  S
S984        H985   1.405   1_554  S
C989        C990   1.409       .  A
C989        C994   1.450       .  A
C990        H999   1.068       .  S
C990        C991   1.429       .  A
C991        C992   1.412       .  A
C991        S995   1.808       .  S
C992        C993   1.410       .  A
C993       H1000   1.082       .  S
C993        C994   1.432       .  A
C994        S996   1.802       .  S
S995        H998   1.404       .  S
S996        H997   1.407       .  S
C1001      C1002   1.413       .  A
C1001      C1006   1.429       .  A
C1002      H1011   1.080       .  S
C1002      C1003   1.410       .  A
C1003      C1004   1.421       .  A
C1003      S1007   1.749   1_655  S
C1004      C1005   1.437       .  A
C1005      H1012   1.075       .  S
C1005      C1006   1.449       .  A
C1006      S1008   1.801       .  S
S1007      H1010   1.403       .  S
S1008      H1009   1.398       .  S
C1013      C1014   1.424       .  A
C1013      C1018   1.475       .  A
C1014      H1023   1.074       .  S
C1014      C1015   1.426       .  A
C1015      C1016   1.430       .  A
C1015      S1019   1.802       .  S
C1016      C1017   1.380       .  A
C1017      H1024   1.084       .  S
C1017      C1018   1.409       .  A
C1018      S1020   1.804       .  S
S1019      H1022   1.396       .  S
S1020      H1021   1.407       .  S
C1025      C1026   1.409       .  A
C1025      C1030   1.445       .  A
C1026      H1035   1.069       .  S
C1026      C1027   1.387       .  A
C1027      C1028   1.418       .  A
C1027      S1031   1.813       .  S
C1028      C1029   1.397       .  A
C1029      H1036   1.082       .  S
C1029      C1030   1.387       .  A
C1030      S1032   1.815       .  S
S1031      H1034   1.408       .  S
S1032      H1033   1.389       .  S
C1037      C1038   1.416       .  A
C1037      C1042   1.415       .  A
C1038      H1047   1.070       .  S
C1038      C1039   1.432       .  A
C1039      C1040   1.435       .  A
C1039      S1043   1.800       .  S
C1040      C1041   1.426       .  A
C1041      H1048   1.081       .  S
C1041      C1042   1.434       .  A
C1042      S1044   1.813       .  S
S1043      H1046   1.379       .  S
S1044      H1045   1.399       .  S
C1049      C1050   1.421       .  A
C1049      C1054   1.416       .  A
C1050      H1059   1.079       .  S
C1050      C1051   1.425       .  A
C1051      C1052   1.412       .  A
C1051      S1055   1.800       .  S
C1052      C1053   1.428       .  A
C1053      H1060   1.075       .  S
C1053      C1054   1.419       .  A
C1054      S1056   1.804       .  S
S1055      H1058   1.408       .  S
S1056      H1057   1.406       .  S
C1061      C1062   1.443       .  A
C1061      C1066   1.446       .  A
C1062      H1071   1.071       .  S
C1062      C1063   1.425       .  A
C1063      C1064   1.422       .  A
C1063      S1067   1.813       .  S
C1064      C1065   1.417       .  A
C1065      H1072   1.081       .  S
C1065      C1066   1.435       .  A
C1066      S1068   1.800       .  S
S1067      H1070   1.397       .  S
S1068      H1069   1.407       .  S
C1073      C1074   1.435       .  A
C1073      C1078   1.439       .  A
C1074      H1083   1.081       .  S
C1074      C1075   1.444       .  A
C1075      C1076   1.434       .  A
C1075      S1079   1.801       .  S
C1076      C1077   1.413       .  A
C1077      H1084   1.067       .  S
C1077      C1078   1.434       .  A
C1078      S1080   1.797       .  S
S1079      H1082   1.406       .  S
S1080      H1081   1.406       .  S
C1085      C1086   1.385       .  A
C1085      C1090   1.431       .  A
C1086      H1095   1.073       .  S
C1086      C1087   1.390       .  A
C1087      C1088   1.457       .  A
C1087      S1091   1.811       .  S
C1088      C1089   1.416       .  A
C1089      H1096   1.074       .  S
C1089      C1090   1.428       .  A
C1090      S1092   1.802       .  S
S1091      H1094   1.409       .  S
S1092      H1093   1.405       .  S
C1097      C1098   1.384       .  A
C1097      C1102   1.405       .  A
C1098      H1107   1.079       .  S
C1098      C1099   1.413       .  A
C1099      C1100   1.477       .  A
C1099      S1103   1.811       .  S
C1100      C1101   1.449       .  A
C1101      H1108   1.060       .  S
C1101      C1102   1.432       .  A
C1102      S1104   1.806       .  S
S1103      H1106   1.406       .  S
S1104      H1105   1.405       .  S
C1109      C1110   1.422       .  A
C1109      C1114   1.431       .  A
C1110      H1119   1.081       .  S
C1110      C1111   1.432       .  A
C1111      C1112   1.437       .  A
C1111      S1115   1.803       .  S
C1112      C1113   1.397       .  A
C1113      H1120   1.083       .  S
C1113      C1114   1.404       .  A
C1114      S1116   1.792       .  S
S1115      H1118   1.401   1_655  S
S1116      H1117   1.407       .  S
C1121      C1122   1.407       .  A
C1121      C1126   1.425       .  A
C1122      H1131   1.081       .  S
C1122      C1123   1.422       .  A
C1123      C1124   1.444       .  A
C1123      S1127   1.810       .  S
C1124      C1125   1.418       .  A
C1125      H1132   1.079       .  S
C1125      C1126   1.426       .  A
C1126      S1128   1.806       .  S
S1127      H1130   1.407       .  S
S1128      H1129   1.406       .  S
C1133      C1134   1.409       .  A
C1133      C1138   1.410       .  A
C1134      H1143   1.083       .  S
C1134      C1135   1.417       .  A
C1135      C1136   1.429       .  A
C1135      S1139   1.787       .  S
C1136      C1137   1.425       .  A
C1137      H1144   1.080       .  S
C1137      C1138   1.398       .  A
C1138      S1140   1.808       .  S
S1139      H1142   1.401       .  S
S1140      H1141   1.390   1_554  S
C1145      C1146   1.413       .  A
C1145      C1150   1.419       .  A
C1146      H1155   1.081       .  S
C1146      C1147   1.416       .  A
C1147      C1148   1.440       .  A
C1147      S1151   1.804       .  S
C1148      C1149   1.422       .  A
C1149      H1156   1.083       .  S
C1149      C1150   1.432       .  A
C1150      S1152   1.798       .  S
S1151      H1154   1.405       .  S
S1152      H1153   1.407       .  S
C1157      C1158   1.393       .  A
C1157      C1162   1.431       .  A
C1158      H1167   1.085       .  S
C1158      C1159   1.411       .  A
C1159      C1160   1.464       .  A
C1159      S1163   1.818       .  S
C1160      C1161   1.418       .  A
C1161      H1168   1.083       .  S
C1161      C1162   1.438       .  A
C1162      S1164   1.797       .  S
S1163      H1166   1.379       .  S
S1164      H1165   1.405       .  S
C1169      C1170   1.403       .  A
C1169      C1174   1.431       .  A
C1170      H1179   1.078       .  S
C1170      C1171   1.398       .  A
C1171      C1172   1.450       .  A
C1171      S1175   1.820       .  S
C1172      C1173   1.421       .  A
C1173      H1180   1.081       .  S
C1173      C1174   1.435       .  A
C1174      S1176   1.799       .  S
S1175      H1178   1.388       .  S
S1176      H1177   1.407       .  S
C1181      C1182   1.420       .  A
C1181      C1186   1.424       .  A
C1182      H1191   1.083       .  S
C1182      C1183   1.436       .  A
C1183      C1184   1.439       .  A
C1183      S1187   1.794       .  S
C1184      C1185   1.433       .  A
C1185      H1192   1.075       .  S
C1185      C1186   1.420       .  A
C1186      S1188   1.795       .  S
S1187      H1190   1.403       .  S
S1188      H1189   1.405   1_554  S
C1193      C1194   1.397       .  A
C1193      C1198   1.424       .  A
C1194      H1203   1.071       .  S
C1194      C1195   1.417       .  A
C1195      C1196   1.456       .  A
C1195      S1199   1.805       .  S
C1196      C1197   1.434       .  A
C1197      H1204   1.080       .  S
C1197      C1198   1.438       .  A
C1198      S1200   1.801       .  S
S1199      H1202   1.408       .  S
S1200      H1201   1.403       .  S
C1205      C1206   1.421       .  A
C1205      C1210   1.449       .  A
C1206      H1215   1.042       .  S
C1206      C1207   1.401       .  A
C1207      C1208   1.407       .  A
C1207      S1211   1.788   1_554  S
C1208      C1209   1.427       .  A
C1209      H1216   1.073       .  S
C1209      C1210   1.446       .  A
C1210      S1212   1.800       .  S
S1211      H1214   1.406       .  S
S1212      H1213   1.407       .  S
C1217      C1218   1.418       .  A
C1217      C1222   1.435       .  A
C1218      H1227   1.077       .  S
C1218      C1219   1.424       .  A
C1219      C1220   1.398       .  A
C1219      S1223   1.796       .  S
C1220      C1221   1.424       .  A
C1221      H1228   1.078       .  S
C1221      C1222   1.430       .  A
C1222      S1224   1.806       .  S
S1223      H1226   1.409       .  S
S1224      H1225   1.404       .  S
C1229      C1230   1.438       .  A
C1229      C1234   1.431       .  A
C1230      H1239   1.069       .  S
C1230      C1231   1.403       .  A
C1231      C1232   1.400       .  A
C1231      S1235   1.807       .  S
C1232      C1233   1.430       .  A
C1233      H1240   1.082       .  S
C1233      C1234   1.442       .  A
C1234      S1236   1.803       .  S
S1235      H1238   1.407       .  S
S1236      H1237   1.406       .  S
C1241      C1242   1.417       .  A
C1241      C1246   1.407       .  A
C1242      H1251   1.080       .  S
C1242      C1243   1.421       .  A
C1243      C1244   1.424       .  A
C1243      S1247   1.793       .  S
C1244      C1245   1.430       .  A
C1245      H1252   1.060       .  S
C1245      C1246   1.417       .  A
C1246      S1248   1.797       .  S
S1247      H1250   1.401       .  S
S1248      H1249   1.399       .  S
C1253      C1254   1.397       .  A
C1253      C1258   1.413       .  A
C1254      H1263   1.076       .  S
C1254      C1255   1.405       .  A
C1255      C1256   1.422       .  A
C1255      S1259   1.792       .  S
C1256      C1257   1.415       .  A
C1257      H1264   1.075       .  S
C1257      C1258   1.413       .  A
C1258      S1260   1.791       .  S
S1259      H1262   1.405       .  S
S1260      H1261   1.407       .  S
C1265      C1266   1.400       .  A
C1265      C1270   1.406       .  A
C1266      H1275   1.081       .  S
C1266      C1267   1.427       .  A
C1267      C1268   1.462       .  A
C1267      S1271   1.802       .  S
C1268      C1269   1.443       .  A
C1269      H1276   1.070       .  S
C1269      C1270   1.420       .  A
C1270      S1272   1.805       .  S
S1271      H1274   1.409       .  S
S1272      H1273   1.406       .  S
C1277      C1278   1.394       .  A
C1277      C1282   1.421       .  A
C1278      H1287   1.061       .  S
C1278      C1279   1.398       .  A
C1279      C1280   1.437       .  A
C1279      S1283   1.809       .  S
C1280      C1281   1.420       .  A
C1281      H1288   1.074       .  S
C1281      C1282   1.424       .  A
C1282      S1284   1.801       .  S
S1283      H1286   1.408       .  S
S1284      H1285   1.406       .  S
C1289      C1290   1.425       .  A
C1289      C1294   1.416       .  A
C1290      H1299   1.082       .  S
C1290      C1291   1.434       .  A
C1291      C1292   1.412       .  A
C1291      S1295   1.794       .  S
C1292      C1293   1.424       .  A
C1293      H1300   1.068       .  S
C1293      C1294   1.396       .  A
C1294      S1296   1.820       .  S
S1295      H1298   1.408       .  S
S1296      H1297   1.402       .  S
C1301      C1302   1.419       .  A
C1301      C1306   1.440       .  A
C1302      H1311   1.069       .  S
C1302      C1303   1.414       .  A
C1303      C1304   1.419       .  A
C1303      S1307   1.793       .  S
C1304      C1305   1.413       .  A
C1305      H1312   1.083       .  S
C1305      C1306   1.426       .  A
C1306      S1308   1.807       .  S
S1307      H1310   1.407       .  S
S1308      H1309   1.405       .  S
C1313      C1314   1.416       .  A
C1313      C1318   1.421       .  A
C1314      H1323   1.078       .  S
C1314      C1315   1.426       .  A
C1315      C1316   1.434       .  A
C1315      S1319   1.807       .  S
C1316      C1317   1.408       .  A
C1317      H1324   1.081       .  S
C1317      C1318   1.420       .  A
C1318      S1320   1.797       .  S
S1319      H1322   1.400   1_655  S
S1320      H1321   1.407       .  S
C1325      C1326   1.394       .  A
C1325      C1330   1.444       .  A
C1326      H1335   1.085       .  S
C1326      C1327   1.393       .  A
C1327      C1328   1.447       .  A
C1327      S1331   1.786       .  S
C1328      C1329   1.433       .  A
C1329      H1336   1.081       .  S
C1329      C1330   1.448       .  A
C1330      S1332   1.795       .  S
S1331      H1334   1.404       .  S
S1332      H1333   1.389       .  S
C1337      C1338   1.428       .  A
C1337      C1342   1.411       .  A
C1338      H1347   1.081       .  S
C1338      C1339   1.426       .  A
C1339      C1340   1.422       .  A
C1339      S1343   1.783       .  S
C1340      C1341   1.432       .  A
C1341      H1348   1.055       .  S
C1341      C1342   1.428       .  A
C1342      S1344   1.813       .  S
S1343      H1346   1.406       .  S
S1344      H1345   1.405       .  S
C1349      C1350   1.433       .  A
C1349      C1354   1.423       .  A
C1350      H1359   1.083       .  S
C1350      C1351   1.406       .  A
C1351      C1352   1.418       .  A
C1351      S1355   1.791       .  S
C1352      C1353   1.440       .  A
C1353      H1360   1.062       .  S
C1353      C1354   1.440       .  A
C1354      S1356   1.811       .  S
S1355      H1358   1.397       .  S
S1356      H1357   1.405       .  S
C1361      C1362   1.422       .  A
C1361      C1366   1.448       .  A
C1362      H1371   1.075       .  S
C1362      C1363   1.431       .  A
C1363      C1364   1.425       .  A
C1363      S1367   1.800       .  S
C1364      C1365   1.409       .  A
C1365      H1372   1.080       .  S
C1365      C1366   1.435       .  A
C1366      S1368   1.804       .  S
S1367      H1370   1.406       .  S
S1368      H1369   1.407       .  S
C1373      C1374   1.423       .  A
C1373      C1378   1.445       .  A
C1374      H1383   1.069       .  S
C1374      C1375   1.409       .  A
C1375      C1376   1.420       .  A
C1375      S1379   1.808       .  S
C1376      C1377   1.405       .  A
C1377      H1384   1.081       .  S
C1377      C1378   1.427       .  A
C1378      S1380   1.802       .  S
S1379      H1382   1.404   1_545  S
S1380      H1381   1.407       .  S
C1385      C1386   1.398       .  A
C1385      C1390   1.423       .  A
C1386      H1395   1.079       .  S
C1386      C1387   1.423       .  A
C1387      C1388   1.450       .  A
C1387      S1391   1.806       .  S
C1388      C1389   1.426       .  A
C1389      H1396   1.075       .  S
C1389      C1390   1.423       .  A
C1390      S1392   1.807       .  S
S1391      H1394   1.407       .  S
S1392      H1393   1.398       .  S
C1397      C1398   1.396       .  A
C1397      C1402   1.419       .  A
C1398      H1407   1.076       .  S
C1398      C1399   1.411       .  A
C1399      C1400   1.453       .  A
C1399      S1403   1.816       .  S
C1400      C1401   1.425       .  A
C1401      H1408   1.080       .  S
C1401      C1402   1.422       .  A
C1402      S1404   1.795       .  S
S1403      H1406   1.408       .  S
S1404      H1405   1.403       .  S
C1409      C1410   1.402       .  A
C1409      C1414   1.437       .  A
C1410      H1419   1.078       .  S
C1410      C1411   1.403       .  A
C1411      C1412   1.418       .  A
C1411      S1415   1.808       .  S
C1412      C1413   1.415       .  A
C1413      H1420   1.081       .  S
C1413      C1414   1.432       .  A
C1414      S1416   1.802       .  S
S1415      H1418   1.408       .  S
S1416      H1417   1.396       .  S
C1421      C1422   1.395       .  A
C1421      C1426   1.422       .  A
C1422      H1431   1.081       .  S
C1422      C1423   1.415       .  A
C1423      C1424   1.457       .  A
C1423      S1427   1.815       .  S
C1424      C1425   1.424       .  A
C1425      H1432   1.066       .  S
C1425      C1426   1.423       .  A
C1426      S1428   1.810       .  S
S1427      H1430   1.407       .  S
S1428      H1429   1.399   1_554  S
C1433      C1434   1.421       .  A
C1433      C1438   1.417       .  A
C1434      H1443   1.074       .  S
C1434      C1435   1.425       .  A
C1435      C1436   1.426       .  A
C1435      S1439   1.802       .  S
C1436      C1437   1.425       .  A
C1437      H1444   1.069       .  S
C1437      C1438   1.414       .  A
C1438      S1440   1.803       .  S
S1439      H1442   1.404       .  S
S1440      H1441   1.407       .  S
C1445      C1446   1.425       .  A
C1445      C1450   1.458       .  A
C1446      H1455   1.061       .  S
C1446      C1447   1.432       .  A
C1447      C1448   1.420       .  A
C1447      S1451   1.816       .  S
C1448      C1449   1.408       .  A
C1449      H1456   1.082       .  S
C1449      C1450   1.435       .  A
C1450      S1452   1.816       .  S
S1451      H1454   1.401       .  S
S1452      H1453   1.407       .  S
C1457      C1458   1.446       .  A
C1457      C1462   1.419       .  A
C1458      H1467   1.072       .  S
C1458      C1459   1.411       .  A
C1459      C1460   1.410       .  A
C1459      S1463   1.813       .  S
C1460      C1461   1.434       .  A
C1461      H1468   1.079       .  S
C1461      C1462   1.441       .  A
C1462      S1464   1.799       .  S
S1463      H1466   1.390       .  S
S1464      H1465   1.408       .  S
C1469      C1470   1.420       .  A
C1469      C1474   1.436       .  A
C1470      H1479   1.075       .  S
C1470      C1471   1.428       .  A
C1471      C1472   1.426       .  A
C1471      S1475   1.806       .  S
C1472      C1473   1.417       .  A
C1473      H1480   1.082       .  S
C1473      C1474   1.431       .  A
C1474      S1476   1.800       .  S
S1475      H1478   1.401       .  S
S1476      H1477   1.405       .  S
C1481      C1482   1.409       .  A
C1481      C1486   1.419       .  A
C1482      H1491   1.081       .  S
C1482      C1483   1.444       .  A
C1483      C1484   1.453       .  A
C1483      S1487   1.801       .  S
C1484      C1485   1.421       .  A
C1485      H1492   1.079       .  S
C1485      C1486   1.425       .  A
C1486      S1488   1.785       .  S
S1487      H1490   1.406       .  S
S1488      H1489   1.400       .  S
C1493      C1494   1.426       .  A
C1493      C1498   1.470       .  A
C1494      H1503   1.079       .  S
C1494      C1495   1.446       .  A
C1495      C1496   1.438       .  A
C1495      S1499   1.797       .  S
C1496      C1497   1.383       .  A
C1497      H1504   1.071       .  S
C1497      C1498   1.404       .  A
C1498      S1500   1.805       .  S
S1499      H1502   1.404       .  S
S1500      H1501   1.387       .  S
C1505      C1506   1.417       .  A
C1505      C1510   1.466       .  A
C1506      H1515   1.083       .  S
C1506      C1507   1.431       .  A
C1507      C1508   1.428       .  A
C1507      S1511   1.799       .  S
C1508      C1509   1.404       .  A
C1509      H1516   1.079       .  S
C1509      C1510   1.407       .  A
C1510      S1512   1.832       .  S
S1511      H1514   1.408       .  S
S1512      H1513   1.399       .  S
C1517      C1518   1.438       .  A
C1517      C1522   1.445       .  A
C1518      H1527   1.081       .  S
C1518      C1519   1.433       .  A
C1519      C1520   1.426       .  A
C1519      S1523   1.800       .  S
C1520      C1521   1.411       .  A
C1521      H1528   1.071       .  S
C1521      C1522   1.417       .  A
C1522      S1524   1.793       .  S
S1523      H1526   1.397       .  S
S1524      H1525   1.408       .  S
C1529      C1530   1.395       .  A
C1529      C1534   1.430       .  A
C1530      H1539   1.075       .  S
C1530      C1531   1.400       .  A
C1531      C1532   1.458       .  A
C1531      S1535   1.819       .  S
C1532      C1533   1.419       .  A
C1533      H1540   1.077       .  S
C1533      C1534   1.432       .  A
C1534      S1536   1.805       .  S
S1535      H1538   1.379       .  S
S1536      H1537   1.401       .  S
C1541      C1542   1.438       .  A
C1541      C1546   1.397       .  A
C1542      H1551   1.070       .  S
C1542      C1543   1.439       .  A
C1543      C1544   1.411       .  A
C1543      S1547   1.793       .  S
C1544      C1545   1.441       .  A
C1545      H1552   1.061       .  S
C1545      C1546   1.389       .  A
C1546      S1548   1.813       .  S
S1547      H1550   1.396       .  S
S1548      H1549   1.406       .  S
C1553      C1554   1.417       .  A
C1553      C1558   1.468       .  A
C1554      H1563   1.074       .  S
C1554      C1555   1.441       .  A
C1555      C1556   1.443       .  A
C1555      S1559   1.790       .  S
C1556      C1557   1.383       .  A
C1557      H1564   1.067       .  S
C1557      C1558   1.392       .  A
C1558      S1560   1.815       .  S
S1559      H1562   1.407       .  S
S1560      H1561   1.405       .  S
C1565      C1566   1.420       .  A
C1565      C1570   1.435       .  A
C1566      H1575   1.070       .  S
C1566      C1567   1.416       .  A
C1567      C1568   1.416       .  A
C1567      S1571   1.810       .  S
C1568      C1569   1.412       .  A
C1569      H1576   1.082       .  S
C1569      C1570   1.426       .  A
C1570      S1572   1.780       .  S
S1571      H1574   1.399       .  S
S1572      H1573   1.408       .  S
C1577      C1578   1.417       .  A
C1577      C1582   1.464       .  A
C1578      H1587   1.071       .  S
C1578      C1579   1.432       .  A
C1579      C1580   1.430       .  A
C1579      S1583   1.803       .  S
C1580      C1581   1.393       .  A
C1581      H1588   1.083       .  S
C1581      C1582   1.415       .  A
C1582      S1584   1.810       .  S
S1583      H1586   1.400       .  S
S1584      H1585   1.407       .  S
C1589      C1590   1.412       .  A
C1589      C1594   1.466       .  A
C1590      H1599   1.079       .  S
C1590      C1591   1.428       .  A
C1591      C1592   1.433       .  A
C1591      S1595   1.793       .  S
C1592      C1593   1.402       .  A
C1593      H1600   1.078       .  S
C1593      C1594   1.423       .  A
C1594      S1596   1.826       .  S
S1595      H1598   1.407       .  S
S1596      H1597   1.407       .  S
C1601      C1602   1.427       .  A
C1601      C1606   1.424       .  A
C1602      H1611   1.064       .  S
C1602      C1603   1.433       .  A
C1603      C1604   1.438       .  A
C1603      S1607   1.811       .  S
C1604      C1605   1.413       .  A
C1605      H1612   1.073       .  S
C1605      C1606   1.425       .  A
C1606      S1608   1.806       .  S
S1607      H1610   1.396       .  S
S1608      H1609   1.407       .  S
C1613      C1614   1.389       .  A
C1613      C1618   1.422       .  A
C1614      H1623   1.083       .  S
C1614      C1615   1.408       .  A
C1615      C1616   1.471       .  A
C1615      S1619   1.810       .  S
C1616      C1617   1.431       .  A
C1617      H1624   1.071       .  S
C1617      C1618   1.427       .  A
C1618      S1620   1.792       .  S
S1619      H1622   1.409       .  S
S1620      H1621   1.402       .  S
C1625      C1626   1.427       .  A
C1625      C1630   1.429       .  A
C1626      H1635   1.079       .  S
C1626      C1627   1.409       .  A
C1627      C1628   1.410       .  A
C1627      S1631   1.795       .  S
C1628      C1629   1.421       .  A
C1629      H1636   1.082       .  S
C1629      C1630   1.426       .  A
C1630      S1632   1.806       .  S
S1631      H1634   1.406       .  S
S1632      H1633   1.405       .  S
C1637      C1638   1.416       .  A
C1637      C1642   1.416       .  A
C1638      H1647   1.079       .  S
C1638      C1639   1.408       .  A
C1639      C1640   1.419       .  A
C1639      S1643   1.807       .  S
C1640      C1641   1.401       .  A
C1641      H1648   1.083       .  S
C1641      C1642   1.405       .  A
C1642      S1644   1.780       .  S
S1643      H1646   1.396       .  S
S1644      H1645   1.406       .  S
C1649      C1650   1.415       .  A
C1649      C1654   1.453       .  A
C1650      H1659   1.080       .  S
C1650      C1651   1.409       .  A
C1651      C1652   1.423       .  A
C1651      S1655   1.796       .  S
C1652      C1653   1.404       .  A
C1653      H1660   1.084       .  S
C1653      C1654   1.420       .  A
C1654      S1656   1.819       .  S
S1655      H1658   1.402       .  S
S1656      H1657   1.397       .  S
C1661      C1662   1.411       .  A
C1661      C1666   1.424       .  A
C1662      H1671   1.069       .  S
C1662      C1663   1.414       .  A
C1663      C1664   1.410       .  A
C1663      S1667   1.803       .  S
C1664      C1665   1.430       .  A
C1665      H1672   1.082       .  S
C1665      C1666   1.436       .  A
C1666      S1668   1.806       .  S
S1667      H1670   1.403       .  S
S1668      H1669   1.407       .  S
C1673      C1674   1.383       .  A
C1673      C1678   1.423       .  A
C1674      H1683   1.083       .  S
C1674      C1675   1.410       .  A
C1675      C1676   1.483       .  A
C1675      S1679   1.830       .  S
C1676      C1677   1.416       .  A
C1677      H1684   1.081       .  S
C1677      C1678   1.428       .  A
C1678      S1680   1.798       .  S
S1679      H1682   1.375       .  S
S1680      H1681   1.406       .  S
C1685      C1686   1.443       .  A
C1685      C1690   1.463       .  A
C1686      H1695   1.064       .  S
C1686      C1687   1.425       .  A
C1687      C1688   1.405       .  A
C1687      S1691   1.798       .  S
C1688      C1689   1.387       .  A
C1689      H1696   1.081       .  S
C1689      C1690   1.412       .  A
C1690      S1692   1.797       .  S
S1691      H1694   1.406       .  S
S1692      H1693   1.407       .  S
C1697      C1698   1.379       .  A
C1697      C1702   1.388       .  A
C1698      H1707   1.075       .  S
C1698      C1699   1.388       .  A
C1699      C1700   1.458       .  A
C1699      S1703   1.804       .  S
C1700      C1701   1.429       .  A
C1701      H1708   1.070       .  S
C1701      C1702   1.394       .  A
C1702      S1704   1.784       .  S
S1703      H1706   1.406       .  S
S1704      H1705   1.408       .  S
C1709      C1710   1.380       .  A
C1709      C1714   1.415       .  A
C1710      H1719   1.088       .  S
C1710      C1711   1.384       .  A
C1711      C1712   1.466       .  A
C1711      S1715   1.830       .  S
C1712      C1713   1.401       .  A
C1713      H1720   1.077       .  S
C1713      C1714   1.404       .  A
C1714      S1716   1.806       .  S
S1715      H1718   1.390       .  S
S1716      H1717   1.406       .  S
C1721      C1722   1.373       .  A
C1721      C1726   1.467       .  A
C1722      H1731   1.070       .  S
C1722      C1723   1.367       .  A
C1723      C1724   1.412       .  A
C1723      S1727   1.756       .  S
C1724      C1725   1.377       .  A
C1725      H1732   1.083       .  S
C1725      C1726   1.397       .  A
C1726      S1728   1.812       .  S
S1727      H1730   1.395       .  S
S1728      H1729   1.407       .  S
C1733      C1734   1.361       .  A
C1733      C1738   1.410       .  A
C1734      H1743   1.086       .  S
C1734      C1735   1.368       .  A
C1735      C1736   1.461       .  A
C1735      S1739   1.806       .  S
C1736      C1737   1.391       .  A
C1737      H1744   1.076       .  S
C1737      C1738   1.378       .  A
C1738      S1740   1.779       .  S
S1739      H1742   1.409       .  S
S1740      H1741   1.360       .  S
C1745      C1746   1.442       .  A
C1745      C1750   1.413       .  A
C1746      H1755   1.079       .  S
C1746      C1747   1.380       .  A
C1747      C1748   1.372       .  A
C1747      S1751   1.804       .  S
C1748      C1749   1.418       .  A
C1749      H1756   1.083       .  S
C1749      C1750   1.412       .  A
C1750      S1752   1.792       .  S
S1751      H1754   1.407       .  S
S1752      H1753   1.408       .  S
C1757      C1758   1.420       .  A
C1757      C1762   1.418       .  A
C1758      H1767   1.066       .  S
C1758      C1759   1.381       .  A
C1759      C1760   1.388       .  A
C1759      S1763   1.802       .  S
C1760      C1761   1.401       .  A
C1761      H1768   1.085       .  S
C1761      C1762   1.388       .  A
C1762      S1764   1.789       .  S
S1763      H1766   1.405       .  S
S1764      H1765   1.408       .  S
C1769      C1770   1.398       .  A
C1769      C1774   1.402       .  A
C1770      H1779   1.060       .  S
C1770      C1771   1.386       .  A
C1771      C1772   1.406       .  A
C1771      S1775   1.777       .  S
C1772      C1773   1.420       .  A
C1773      H1780   1.075       .  S
C1773      C1774   1.385       .  A
C1774      S1776   1.793       .  S
S1775      H1778   1.407       .  S
S1776      H1777   1.407       .  S
C1781      C1782   1.432       .  A
C1781      C1786   1.427       .  A
C1782      H1791   1.075       .  S
C1782      C1783   1.413       .  A
C1783      C1784   1.430       .  A
C1783      S1787   1.801       .  S
C1784      C1785   1.439       .  A
C1785      H1792   1.076       .  S
C1785      C1786   1.446       .  A
C1786      S1788   1.794       .  S
S1787      H1790   1.403       .  S
S1788      H1789   1.402       .  S
C1793      C1794   1.450       .  A
C1793      C1798   1.437       .  A
C1794      H1803   1.070       .  S
C1794      C1795   1.403       .  A
C1795      C1796   1.404       .  A
C1795      S1799   1.810       .  S
C1796      C1797   1.430       .  A
C1797      H1804   1.082       .  S
C1797      C1798   1.442       .  A
C1798      S1800   1.798       .  S
S1799      H1802   1.403       .  S
S1800      H1801   1.401       .  S
C1805      C1806   1.436       .  A
C1805      C1810   1.430       .  A
C1806      H1815   1.079       .  S
C1806      C1807   1.447       .  A
C1807      C1808   1.439       .  A
C1807      S1811   1.797       .  S
C1808      C1809   1.406       .  A
C1809      H1816   1.075       .  S
C1809      C1810   1.423       .  A
C1810      S1812   1.797       .  S
S1811      H1814   1.407       .  S
S1812      H1813   1.403       .  S
C1817      C1818   1.412       .  A
C1817      C1822   1.469       .  A
C1818      H1827   1.078       .  S
C1818      C1819   1.401       .  A
C1819      C1820   1.417       .  A
C1819      S1823   1.799       .  S
C1820      C1821   1.374       .  A
C1821      H1828   1.083       .  S
C1821      C1822   1.397       .  A
C1822      S1824   1.816       .  S
S1823      H1826   1.407       .  S
S1824      H1825   1.376       .  S
