geometry optimzed in LAMMPS
_audit_creation_date              2020-12-01 
_audit_creation_method            'lammps2cif' 
_symmetry_space_group_name_H-M    'P1' 
_symmetry_Int_Tables_number       1 
_symmetry_cell_setting            triclinic 
loop_ 
_symmetry_equiv_pos_as_xyz 
  x,y,z 
_cell_length_a                    27.45455855 
_cell_length_b                    24.632902010822637 
_cell_length_c                    40.670550231154266 
_cell_angle_alpha                 90.09832564805315 
_cell_angle_beta                  90.31754988237688 
_cell_angle_gamma                 92.5847769126583 
loop_ 
_atom_site_label 
_atom_site_type_symbol 
_atom_site_fract_x 
_atom_site_fract_y 
_atom_site_fract_z 
_atom_site_charge 
O1          O  0.08585916  0.20159670  0.96243231    -0.74900
O2          O  0.07702245  0.30813862  0.03261504    -0.74900
O3          O  0.08467119  0.30915840  0.96459266    -0.75000
O4          O  0.07595989  0.19924082  0.03069811    -0.75100
O5          O  0.15641831  0.20233295  0.03591491    -0.75000
O6          O  0.16557043  0.31117194  0.96838522    -0.75000
O7          O  0.15763735  0.31175331  0.03568243    -0.74900
O8          O  0.16603299  0.20369770  0.96940051    -0.75000
Ni9        Ni  0.07786518  0.25434184  0.99743947     1.25400
Ni10       Ni  0.16413453  0.25752439  0.00260884     1.25400
C11         C  0.12846340  0.18924420  0.95254026     0.87300
C12         C  0.11657509  0.32322608  0.04783337     0.87200
C13         C  0.12663218  0.32303757  0.95302333     0.87200
C14         C  0.11418816  0.18707253  0.04667317     0.87400
C15         C  0.11389927  0.12513860  0.18657157     0.86000
C16         C  0.07294106  0.14574331  0.20876291    -0.54200
C17         C  0.07131428  0.12426251  0.23989624     0.08900
C18         C  0.11277183  0.08238273  0.24564393     0.19900
C19         C  0.15996002  0.13880831  0.20684584    -0.55000
C20         C  0.15948930  0.11897377  0.23832096     0.09000
C21         C  0.10415859  0.06473287  0.18752034    -0.54500
C22         C  0.10884155  0.03876941  0.21678378     0.09600
H23         H  0.04841723  0.17630467  0.20154034     0.14100
H24         H  0.11226773  0.06321961  0.27018088    -0.00100
H25         H  0.18897914  0.16484843  0.19683445     0.14400
H26         H  0.09280530  0.04485550  0.16488819     0.14200
C27         C  0.10531133  0.38812674  0.18764340     0.86000
C28         C  0.14802293  0.36962145  0.20930751    -0.54200
C29         C  0.14907806  0.38912793  0.24075065     0.08900
C30         C  0.10654546  0.42898637  0.24728791     0.19900
C31         C  0.06001281  0.37191366  0.20775715    -0.55000
C32         C  0.06046206  0.39090035  0.23939028     0.09000
C33         C  0.11241533  0.44900892  0.18947264    -0.54500
C34         C  0.10930631  0.47408176  0.21947591     0.09600
H35         H  0.17553792  0.34326682  0.20115851     0.14100
H36         H  0.10711636  0.44743984  0.27200311    -0.00100
H37         H  0.03161236  0.34465018  0.19775414     0.14400
H38         H  0.12240417  0.46928549  0.16691531     0.14200
C39         C  0.24281347  0.13784623  0.31556340     0.86000
C40         C  0.19768396  0.11917578  0.29507438    -0.54200
C41         C  0.19669508  0.13871908  0.26361650     0.08900
C42         C  0.24011953  0.17971234  0.25649814     0.19900
C43         C  0.03241167  0.12373797  0.29656933    -0.55000
C44         C  0.03463762  0.14365105  0.26503930     0.09000
C45         C  0.24576384  0.19902443  0.31427379    -0.54500
C46         C  0.23909522  0.22356657  0.28471965     0.09600
H47         H  0.17040267  0.09044895  0.30476387     0.14100
H48         H  0.23942948  0.19893981  0.23209233    -0.00100
H49         H  0.06033742  0.09904274  0.30686487     0.14400
H50         H  0.26322623  0.22094462  0.33453957     0.14200
C51         C  0.98187378  0.36775132  0.31728074     0.86000
C52         C  0.02522171  0.38778412  0.29626983    -0.54200
C53         C  0.02418872  0.36923422  0.26452160     0.08900
C54         C  0.98015774  0.32718456  0.25784252     0.19900
C55         C  0.18666476  0.38732196  0.29746853    -0.55000
C56         C  0.18520475  0.36823314  0.26578030     0.09000
C57         C  0.98680429  0.30702093  0.31561317    -0.54500
C58         C  0.98276326  0.28247182  0.28551201     0.09600
H59         H  0.05348573  0.41533619  0.30606463     0.14100
H60         H  0.97985809  0.30889052  0.23310836    -0.00100
H61         H  0.16072865  0.41521348  0.30680120     0.14400
H62         H  0.99981893  0.28657160  0.33721965     0.14200
O63         O  0.03487750  0.05204275  0.46409944    -0.74900
O64         O  0.04061017  0.45547650  0.53335578    -0.74900
O65         O  0.03391386  0.45215418  0.46555625    -0.75000
O66         O  0.04022096  0.05256227  0.53179445    -0.75100
O67         O  0.21273297  0.05258678  0.53512945    -0.75000
O68         O  0.19584727  0.45154668  0.46968149    -0.75000
O69         O  0.20139536  0.45574761  0.53736446    -0.74900
O70         O  0.20406466  0.05101617  0.46725240    -0.75000
Ni71       Ni  0.04307170  0.50743794  0.49822696     1.25400
Ni72       Ni  0.20000166  0.50765939  0.50220727     1.25400
C73         C  0.99308444  0.06353245  0.45269635     0.87300
C74         C  0.24171623  0.43946483  0.54904264     0.87200
C75         C  0.23382656  0.43404076  0.45592349     0.87200
C76         C  0.00064507  0.06303373  0.54669491     0.87400
C77         C  0.14047499  0.11612099  0.81465612     0.86000
C78         C  0.18268755  0.13791683  0.79252877    -0.54200
C79         C  0.18329720  0.11579272  0.76126271     0.08900
C80         C  0.13935945  0.07322454  0.75554762     0.19900
C81         C  0.09550192  0.12889996  0.79436553    -0.55000
C82         C  0.09405595  0.10867339  0.76323449     0.09000
C83         C  0.14700574  0.05599617  0.81361117    -0.54500
C84         C  0.14299058  0.02975825  0.78410448     0.09600
H85         H  0.20834942  0.16968543  0.80032055     0.14100
H86         H  0.13897751  0.05424674  0.73091281    -0.00100
H87         H  0.07072216  0.15874416  0.80274385     0.14400
H88         H  0.15843732  0.03745669  0.83623958     0.14200
C89         C  0.13483718  0.37971383  0.81378489     0.86000
C90         C  0.08856841  0.36907461  0.79309407    -0.54200
C91         C  0.09113471  0.38713551  0.76148958     0.08900
C92         C  0.13951543  0.42175166  0.75482232     0.19900
C93         C  0.17702726  0.35935797  0.79351045    -0.55000
C94         C  0.17945424  0.37877980  0.76228091     0.09000
C95         C  0.13934255  0.44099585  0.81297030    -0.54500
C96         C  0.14321607  0.46656306  0.78303399     0.09600
H97         H  0.05555811  0.35091028  0.80298562     0.14100
H98         H  0.14129963  0.44017568  0.73014554    -0.00100
H99         H  0.20083777  0.32887047  0.80279449     0.14400
H100        H  0.13319260  0.46114805  0.83597726     0.14200
C101        C  0.01660352  0.12998170  0.68501752     0.86000
C102        C  0.05552234  0.10739962  0.70746703    -0.54200
C103        C  0.05839923  0.12991718  0.73808236     0.08900
C104        C  0.01735994  0.17269840  0.74393243     0.19900
C105        C  0.22406297  0.11341475  0.70454401    -0.55000
C106        C  0.22197269  0.13359419  0.73613590     0.09000
C107        C  0.02518506  0.19091326  0.68608319    -0.54500
C108        C  0.27097110  0.21519410  0.71641870     0.09600
H109        H  0.07425636  0.07140740  0.70152199     0.14100
H110        H  0.01828558  0.19193472  0.76842716    -0.00100
H111        H  0.19580862  0.08639367  0.69422694     0.14400
H112        H  0.03448767  0.21103320  0.66328287     0.14200
C113        C  0.25489289  0.36288358  0.68468280     0.86000
C114        C  0.20969399  0.37066599  0.70548705    -0.54200
C115        C  0.21314340  0.35490509  0.73722006     0.08900
C116        C  0.26025409  0.32194847  0.74383307     0.19900
C117        C  0.05036712  0.38900357  0.70560189    -0.55000
C118        C  0.05308001  0.36784324  0.73657381     0.09000
C119        C  0.25760888  0.30164901  0.68562814    -0.54500
C120        C  0.26333765  0.27757482  0.71574751     0.09600
H121        H  0.17679818  0.38643421  0.69577336     0.14100
H122        H  0.26145865  0.30311939  0.76839907    -0.00100
H123        H  0.07600840  0.42003044  0.69651157     0.14400
H124        H  0.25026560  0.27929450  0.66315477     0.14200
C125        C  0.21757867  0.44094957  0.60674801    -0.06300
C126        C  0.24241630  0.41409526  0.58200852    -0.00300
C127        C  0.03620377  0.38152024  0.59222651    -0.08900
C128        C  0.03795543  0.36803672  0.62592182    -0.06300
C129        C  0.25308517  0.38553698  0.64940173    -0.00400
C130        C  0.22567100  0.43072684  0.64026043    -0.08800
C131        C  0.20950906  0.47354509  0.66414573     0.61600
H132        H  0.19541497  0.47457494  0.59990355     0.12200
H133        H  0.06458399  0.33993278  0.63423028     0.12300
C134        C  0.07071491  0.35574921  0.56841867     0.61800
F135        F  0.21634138  0.52377028  0.65005718    -0.23400
F136        F  0.23601569  0.47504627  0.69314496    -0.20700
F137        F  0.16053552  0.46539061  0.67062099    -0.20400
F138        F  0.10717699  0.39337182  0.55961334    -0.20400
F139        F  0.04553640  0.33796256  0.54056531    -0.20800
F140        F  0.09235054  0.31141275  0.58220705    -0.23400
C141        C  0.04980975  0.09209254  0.59512316    -0.06300
C142        C  0.00388982  0.08980892  0.57977557    -0.00300
C143        C  0.23908151  0.13136083  0.59222233    -0.08900
C144        C  0.24156334  0.14053029  0.62658758    -0.06300
C145        C  0.01472463  0.11327009  0.64840935    -0.00400
C146        C  0.05653689  0.10522892  0.62856408    -0.08800
C147        C  0.10872809  0.10942696  0.64106403     0.61600
H148        H  0.08106171  0.08082506  0.58097222     0.12200
H149        H  0.22101230  0.17303794  0.63668783     0.12300
C150        C  0.21319649  0.17035771  0.56992152     0.61800
F151        F  0.11937173  0.06203689  0.65682454    -0.23400
F152        F  0.11706603  0.15362109  0.66162288    -0.20700
F153        F  0.14083961  0.11593993  0.61535349    -0.20400
F154        F  0.17571879  0.14354177  0.55280585    -0.20400
F155        F  0.24626599  0.19296703  0.54775040    -0.20800
F156        F  0.19350593  0.21218756  0.58750411    -0.23400
C157        C  0.18846290  0.38626226  0.37161151    -0.06300
C158        C  0.98057116  0.38845975  0.35292431    -0.00300
C159        C  0.99587764  0.44192677  0.36209567    -0.08900
C160        C  0.00352194  0.45376866  0.39549456    -0.07300
C161        C  0.98778677  0.41790507  0.42028961    -0.00400
C162        C  0.18585190  0.39696582  0.40555681    -0.08800
C163        C  0.13593376  0.40021029  0.42121935     0.61600
H164        H  0.15486271  0.38055008  0.35786286     0.12200
H165        H  0.01784978  0.49395636  0.40237139     0.12300
C166        C  0.99655164  0.49064979  0.33953716     0.61800
F167        F  0.09922806  0.37865063  0.40095970    -0.23400
F168        F  0.12628840  0.45385727  0.42738886    -0.20700
F169        F  0.13435349  0.37092993  0.45023255    -0.20400
F170        F  0.98505770  0.48023100  0.30709503    -0.20400
F171        F  0.04175466  0.51765707  0.34113098    -0.20800
F172        F  0.96129130  0.52355868  0.35092651    -0.23400
C173        C  0.22701002  0.15117211  0.37727301    -0.06300
C174        C  0.24105698  0.11628856  0.35121435    -0.00300
C175        C  0.94007015  0.09459312  0.36894630    -0.08900
C176        C  0.94561765  0.08001333  0.40215496    -0.06300
C177        C  0.24257656  0.08338254  0.41829825    -0.00400
C178        C  0.22831171  0.13584150  0.41062237    -0.08800
C179        C  0.21594956  0.17560086  0.43756781     0.61600
H180        H  0.21349706  0.19059165  0.37177094     0.12200
H181        H  0.91538230  0.05892715  0.41438817     0.12300
C182        C  0.88834627  0.09053794  0.35530325     0.61800
F183        F  0.20339192  0.22528292  0.42496579    -0.23400
F184        F  0.25586956  0.18423180  0.45809610    -0.20700
F185        F  0.17718471  0.15484216  0.45586249    -0.20400
F186        F  0.88045746  0.04216637  0.33840941    -0.20400
F187        F  0.87960291  0.13463770  0.33555663    -0.20800
F188        F  0.85427507  0.09113125  0.38027975    -0.23400
C189        C  0.14693137  0.13152265  0.09281302    -0.06300
C190        C  0.10993594  0.16318060  0.08054060    -0.00300
C191        C  0.07445697  0.18015892  0.10295995    -0.08900
C192        C  0.08192943  0.17408068  0.13680508    -0.06300
C193        C  0.11795579  0.14183258  0.14983147    -0.00400
C194        C  0.15082665  0.11821416  0.12659639    -0.08800
C195        C  0.18783903  0.07514315  0.13400966     0.61600
H196        H  0.17264940  0.11588130  0.07548564     0.12200
H197        H  0.05725213  0.19337818  0.15283266     0.12300
C198        C  0.02776935  0.20409560  0.09182910     0.61800
F199        F  0.23184103  0.08855516  0.11917662    -0.23400
F200        F  0.17055032  0.02628572  0.12070464    -0.20700
F201        F  0.19764541  0.06739978  0.16681520    -0.20400
F202        F  0.00560251  0.17141491  0.06796783    -0.20400
F203        F  0.03799079  0.25501747  0.07946417    -0.20800
F204        F  0.99509004  0.20814531  0.11745728    -0.23400
C205        C  0.07816501  0.37934641  0.09250100    -0.06300
C206        C  0.11531039  0.34594373  0.08233636    -0.00300
C207        C  0.14747097  0.32769423  0.10695195    -0.08900
C208        C  0.13607545  0.33358584  0.14005384    -0.06300
C209        C  0.10220140  0.36999031  0.15096252    -0.00400
C210        C  0.07175572  0.39360888  0.12612360    -0.08800
C211        C  0.03466518  0.43674137  0.13245919     0.61600
H212        H  0.05504236  0.39602505  0.07377582     0.12200
H213        H  0.15536853  0.30959941  0.15730375     0.12300
C214        C  0.19429380  0.30152137  0.09904127     0.61800
F215        F  0.24461277  0.42677336  0.11116772    -0.23400
F216        F  0.05468221  0.48668029  0.12294968    -0.20700
F217        F  0.01999784  0.43984094  0.16470138    -0.20400
F218        F  0.22129495  0.33396071  0.07771047    -0.20400
F219        F  0.18314292  0.25245035  0.08492997    -0.20800
F220        F  0.98540405  0.31422971  0.11864176    -0.23400
C221        C  0.09646522  0.13257495  0.90557429    -0.06300
C222        C  0.13516290  0.16363529  0.91947937    -0.00300
C223        C  0.17725273  0.17506592  0.89994988    -0.08900
C224        C  0.17621487  0.16113893  0.86637228    -0.06300
C225        C  0.13650633  0.13270329  0.85140849    -0.00400
C226        C  0.09641893  0.11493400  0.87241310    -0.08800
C227        C  0.05167502  0.08013177  0.86097241     0.61600
H228        H  0.06534517  0.12312377  0.92106075     0.12200
H229        H  0.20759125  0.17219372  0.85188665     0.12300
C230        C  0.22373007  0.20213697  0.91388868     0.61800
F231        F  0.02230740  0.06394868  0.88708092    -0.23400
F232        F  0.06475676  0.03319808  0.84555575    -0.20700
F233        F  0.02313595  0.10913264  0.84003264    -0.20400
F234        F  0.24023449  0.17234495  0.94013210    -0.20400
F235        F  0.21555986  0.25459669  0.92363578    -0.20800
F236        F  0.26055076  0.20489788  0.89111053    -0.23400
C237        C  0.16984969  0.38419224  0.87146962    -0.06300
C238        C  0.13562637  0.35899756  0.84942985    -0.00300
C239        C  0.10253442  0.31883027  0.86210111    -0.08900
C240        C  0.09709022  0.31485435  0.89630340    -0.06300
C241        C  0.12941147  0.34199627  0.91842428    -0.00400
C242        C  0.16765149  0.37610557  0.90574243    -0.08800
C243        C  0.20505333  0.40508393  0.92803019     0.61600
H244        H  0.19805737  0.41144590  0.86150105     0.12200
H245        H  0.07049896  0.28519663  0.90581649     0.12300
C246        C  0.07942102  0.27295255  0.84160417     0.61800
F247        F  0.23353988  0.44335224  0.91108193    -0.23400
F248        F  0.23581270  0.36806856  0.94147638    -0.20700
F249        F  0.18161687  0.43158896  0.95299144    -0.20400
F250        F  0.10153833  0.26729062  0.81141333    -0.20400
F251        F  0.03001322  0.27979416  0.83760377    -0.20800
F252        F  0.08521197  0.22497573  0.85778325    -0.23400
O253        O  0.09045373  0.69090871  0.96292533    -0.74900
O254        O  0.08064104  0.79727052  0.03240494    -0.74900
O255        O  0.08713070  0.79825327  0.96451528    -0.75000
O256        O  0.08160142  0.68877775  0.03065773    -0.75100
O257        O  0.16175520  0.69683560  0.03744700    -0.75000
O258        O  0.16820943  0.80010014  0.96682976    -0.75000
O259        O  0.16129913  0.80530611  0.03333314    -0.74900
O260        O  0.17050748  0.69260671  0.97081442    -0.75000
Ni261      Ni  0.08189085  0.74353811  0.99750418     1.25400
Ni262      Ni  0.16823389  0.74891257  0.00231250     1.25400
C263        C  0.13320232  0.67819491  0.95370849     0.87300
C264        C  0.12045884  0.81547584  0.04604942     0.87200
C265        C  0.12865036  0.81264738  0.95249413     0.87200
C266        C  0.11971809  0.67948835  0.04750907     0.87400
C267        C  0.11519392  0.62313087  0.18776174     0.86000
C268        C  0.07446164  0.64542101  0.20915882    -0.54200
C269        C  0.07234129  0.62540340  0.24056944     0.08900
C270        C  0.11354523  0.58328760  0.24754966     0.19900
C271        C  0.16062270  0.63798345  0.20793439    -0.55000
C272        C  0.16071344  0.61907400  0.23948863     0.09000
C273        C  0.10531944  0.56275363  0.18994315    -0.54500
C274        C  0.10885022  0.53785320  0.21976848     0.09600
H275        H  0.05191185  0.67773127  0.20148477     0.14100
H276        H  0.11323592  0.56567773  0.27251326    -0.00100
H277        H  0.18667470  0.66820137  0.19875459     0.14400
H278        H  0.09297905  0.54249308  0.16772636     0.14200
C279        C  0.11008223  0.89083713  0.18268376     0.86000
C280        C  0.15093896  0.87010665  0.20488816    -0.54200
C281        C  0.15218514  0.89049935  0.23603961     0.08900
C282        C  0.10994111  0.93078254  0.24223831     0.19900
C283        C  0.06424009  0.87392416  0.20208997    -0.55000
C284        C  0.06386013  0.89329525  0.23355337     0.09000
C285        C  0.11696975  0.95184205  0.18498897    -0.54500
C286        C  0.11274080  0.97582753  0.21513254     0.09600
H287        H  0.17301534  0.83687573  0.19795500     0.14100
H288        H  0.11084400  0.95000981  0.26662976    -0.00100
H289        H  0.03802548  0.84324303  0.19317040     0.14400
H290        H  0.12639689  0.97341628  0.16274752     0.14200
C291        C  0.24707230  0.64128210  0.31512094     0.86000
C292        C  0.19989210  0.62430441  0.29600942    -0.54200
C293        C  0.19908250  0.63986385  0.26380524     0.08900
C294        C  0.24430662  0.67711433  0.25471002     0.19900
C295        C  0.03528895  0.63056367  0.29690362    -0.55000
C296        C  0.03645794  0.64756138  0.26503263     0.09000
C297        C  0.25409237  0.70206755  0.31134219    -0.54500
C298        C  0.24585534  0.72382656  0.28116281     0.09600
H299        H  0.17109919  0.59906711  0.30709529     0.14100
H300        H  0.24420669  0.69414588  0.22976583    -0.00100
H301        H  0.06252174  0.60457751  0.30673313     0.14400
H302        H  0.27111908  0.72659224  0.33065953     0.14200
C303        C  0.98741442  0.87681952  0.31163381     0.86000
C304        C  0.02993987  0.89272296  0.28955556    -0.54200
C305        C  0.02694787  0.87342908  0.25826946     0.08900
C306        C  0.98174507  0.83293896  0.25286179     0.19900
C307        C  0.18569111  0.88561777  0.29355465    -0.55000
C308        C  0.18618580  0.86792285  0.26158199     0.09000
C309        C  0.99066531  0.81592742  0.31070169    -0.54500
C310        C  0.98468932  0.78937444  0.28135226     0.09600
H311        H  0.06236617  0.91106406  0.29867323     0.14100
H312        H  0.98048404  0.81323780  0.22850464    -0.00100
H313        H  0.15955841  0.91341313  0.30263576     0.14400
H314        H  0.00616463  0.79738210  0.33221151     0.14200
O315        O  0.03992492  0.55957409  0.46388010    -0.74900
O316        O  0.04357642  0.94525657  0.53190575    -0.74900
O317        O  0.03732711  0.94496263  0.46408378    -0.75000
O318        O  0.04652452  0.56343639  0.53051759    -0.75100
O319        O  0.20957127  0.56330508  0.53464740    -0.75000
O320        O  0.19417917  0.94343539  0.46823251    -0.75000
O321        O  0.20371568  0.94475478  0.53604828    -0.74900
O322        O  0.20474303  0.55925400  0.46681839    -0.75000
Ni323      Ni  0.04185088  0.99882142  0.49788212     1.25400
Ni324      Ni  0.20076919  0.99811418  0.50183591     1.25400
C325        C  0.99954141  0.57608237  0.45289647     0.87300
C326        C  0.24447936  0.92934964  0.54755499     0.87200
C327        C  0.23135185  0.92551039  0.45359828     0.87200
C328        C  0.00835819  0.57826915  0.54539341     0.87400
C329        C  0.14283718  0.61540108  0.81511726     0.86000
C330        C  0.18449307  0.63920950  0.79339120    -0.54200
C331        C  0.18463370  0.61892624  0.76182941     0.08900
C332        C  0.14139016  0.57552356  0.75549480     0.19900
C333        C  0.09739778  0.62893562  0.79526897    -0.55000
C334        C  0.09635141  0.61081357  0.76371695     0.09000
C335        C  0.15019721  0.55550650  0.81283178    -0.54500
C336        C  0.14520268  0.53042003  0.78307427     0.09600
H337        H  0.20940602  0.67178157  0.80122659     0.14100
H338        H  0.14099102  0.55671952  0.73087121    -0.00100
H339        H  0.07268560  0.65869589  0.80382776     0.14400
H340        H  0.16336220  0.53618143  0.83477627     0.14200
C341        C  0.13571681  0.87901222  0.81503433     0.86000
C342        C  0.08992411  0.86772090  0.79412897    -0.54200
C343        C  0.09244525  0.88657588  0.76273009     0.08900
C344        C  0.14009028  0.92235323  0.75643366     0.19900
C345        C  0.17863516  0.86037523  0.79483969    -0.55000
C346        C  0.18105698  0.88084516  0.76387901     0.09000
C347        C  0.13893114  0.94059112  0.81463998    -0.54500
C348        C  0.14242533  0.96636528  0.78472042     0.09600
H349        H  0.05708207  0.84915590  0.80392559     0.14100
H350        H  0.14162749  0.94166202  0.73198614    -0.00100
H351        H  0.20336092  0.83078399  0.80408722     0.14400
H352        H  0.13229753  0.96056990  0.83762685     0.14200
C353        C  0.02204881  0.63278772  0.68495803     0.86000
C354        C  0.06424988  0.61741010  0.70689751    -0.54200
C355        C  0.06212793  0.63441769  0.73854499     0.08900
C356        C  0.01859086  0.67368623  0.74436492     0.19900
C357        C  0.21988750  0.62289679  0.70450316    -0.55000
C358        C  0.22056332  0.64095461  0.73644191     0.09000
C359        C  0.02747493  0.69401376  0.68672615    -0.54500
C360        C  0.27255302  0.72081946  0.71699414     0.09600
H361        H  0.09564451  0.59843724  0.69814454     0.14100
H362        H  0.01863975  0.69224403  0.76902156    -0.00100
H363        H  0.19061732  0.59698557  0.69447428     0.14400
H364        H  0.03960226  0.71522379  0.66483118     0.14200
C365        C  0.25844472  0.87029063  0.68674974     0.86000
C366        C  0.21366795  0.87805145  0.70769420    -0.54200
C367        C  0.21662648  0.86050085  0.73907655     0.08900
C368        C  0.26331685  0.82684024  0.74547486     0.19900
C369        C  0.05282068  0.88956004  0.70678132    -0.55000
C370        C  0.05460449  0.86820842  0.73770840     0.09000
C371        C  0.26051217  0.80886188  0.68708755    -0.54500
C372        C  0.26592322  0.78346700  0.71689482     0.09600
H373        H  0.18042745  0.89300226  0.69806365     0.14100
H374        H  0.26424571  0.80727281  0.76983555    -0.00100
H375        H  0.07868185  0.92055890  0.69796909     0.14400
H376        H  0.25364742  0.78784535  0.66412541     0.14200
C377        C  0.21534049  0.93174704  0.60422597    -0.06300
C378        C  0.24635717  0.90792648  0.58171291    -0.00300
C379        C  0.04713760  0.88084869  0.59467483    -0.08900
C380        C  0.04740155  0.87070454  0.62889131    -0.06300
C381        C  0.25688549  0.89208139  0.65100527    -0.00400
C382        C  0.22233285  0.92852551  0.63836153    -0.08800
C383        C  0.19639175  0.97087816  0.65807189     0.61600
H384        H  0.18829597  0.95875366  0.59501697     0.12200
H385        H  0.07596202  0.84730538  0.63954099     0.12300
C386        C  0.08887249  0.86223487  0.57379199     0.61800
F387        F  0.19911427  0.01967915  0.64143784    -0.23400
F388        F  0.21688431  0.98072022  0.68869621    -0.20700
F389        F  0.14766550  0.95515233  0.66103298    -0.20400
F390        F  0.11552113  0.90685310  0.56206608    -0.20400
F391        F  0.07077679  0.83139312  0.54764970    -0.20800
F392        F  0.12043247  0.83108211  0.59157933    -0.23400
C393        C  0.04471912  0.56863377  0.59892036    -0.06300
C394        C  0.01438299  0.59893550  0.57916483    -0.00300
C395        C  0.21793680  0.62444019  0.59683882    -0.08900
C396        C  0.22333984  0.63294827  0.63095874    -0.06300
C397        C  0.01978028  0.61514116  0.64840468    -0.00400
C398        C  0.04702956  0.57403843  0.63310677    -0.08800
C399        C  0.07759965  0.53325318  0.65057589     0.61600
H400        H  0.06542128  0.53760616  0.58722125     0.12200
H401        H  0.19338166  0.64913269  0.64445008     0.12300
C402        C  0.17135293  0.64067369  0.57991717     0.61800
F403        F  0.05801431  0.51797017  0.68049261    -0.23400
F404        F  0.12427109  0.55572253  0.65405790    -0.20700
F405        F  0.08062170  0.48587289  0.63248381    -0.20400
F406        F  0.14320756  0.59499532  0.57129645    -0.20400
F407        F  0.18276106  0.67069918  0.55206156    -0.20800
F408        F  0.14357053  0.67224805  0.60009660    -0.23400
C409        C  0.18470320  0.88433473  0.36814314    -0.06300
C410        C  0.98788543  0.89654410  0.34777494    -0.00300
C411        C  0.01555622  0.94228283  0.36070331    -0.08900
C412        C  0.01719790  0.94966229  0.39495452    -0.07300
C413        C  0.99424728  0.91316448  0.41687974    -0.00400
C414        C  0.18221461  0.89322757  0.40236653    -0.08800
C415        C  0.13259532  0.89713782  0.41801052     0.61600
H416        H  0.15129134  0.88269711  0.35398435     0.12200
H417        H  0.03749312  0.98450769  0.40517358     0.12300
C418        C  0.04290752  0.98515909  0.34028015     0.61800
F419        F  0.09598720  0.87674445  0.39732148    -0.23400
F420        F  0.12419231  0.95087062  0.42489563    -0.20700
F421        F  0.13017446  0.86675303  0.44658179    -0.20400
F422        F  0.01859247  0.99536730  0.31119537    -0.20400
F423        F  0.09015424  0.97053681  0.33476490    -0.20800
F424        F  0.04745588  0.03321451  0.35708198    -0.23400
C425        C  0.23869280  0.66060883  0.37717176    -0.06300
C426        C  0.24545472  0.62247060  0.35127642    -0.00300
C427        C  0.94623303  0.62699815  0.37340926    -0.08900
C428        C  0.95204731  0.61189279  0.40647798    -0.06300
C429        C  0.24562066  0.59151843  0.41876199    -0.00400
C430        C  0.23974921  0.64612563  0.41068202    -0.08800
C431        C  0.23517051  0.68856202  0.43740807     0.61600
H432        H  0.23045944  0.70192227  0.37169974     0.12200
H433        H  0.91968547  0.60305502  0.42098257     0.12300
C434        C  0.89385304  0.63307256  0.36175807     0.61800
F435        F  0.22999979  0.74003777  0.42457425    -0.23400
F436        F  0.27653118  0.68987148  0.45701401    -0.20700
F437        F  0.19494133  0.67559213  0.45661189    -0.20400
F438        F  0.87405853  0.58275666  0.35248698    -0.20400
F439        F  0.89014629  0.66928246  0.33614504    -0.20800
F440        F  0.86575362  0.65253037  0.38701047    -0.23400
C441        C  0.15412618  0.63005642  0.09533452    -0.06300
C442        C  0.11487923  0.65600443  0.08130691    -0.00300
C443        C  0.07535327  0.66770848  0.10181433    -0.08900
C444        C  0.08008538  0.66233034  0.13593029    -0.06300
C445        C  0.11964613  0.63806940  0.15084450    -0.00400
C446        C  0.15719673  0.61901672  0.12946146    -0.08800
C447        C  0.20102200  0.58748369  0.14115194     0.61600
H448        H  0.18237532  0.61803524  0.07890433     0.12200
H449        H  0.05088161  0.67555690  0.15078520     0.12300
C450        C  0.02740254  0.68525480  0.08831693     0.61800
F451        F  0.22994063  0.57236449  0.11520126    -0.23400
F452        F  0.18637638  0.54031948  0.15702322    -0.20700
F453        F  0.23049994  0.61867795  0.16190108    -0.20400
F454        F  0.01066398  0.64946357  0.06414818    -0.20400
F455        F  0.03312411  0.73691965  0.07569487    -0.20800
F456        F  0.99253693  0.68541141  0.11254635    -0.23400
C457        C  0.07897538  0.86906152  0.08936826    -0.06300
C458        C  0.12035211  0.84260187  0.07899332    -0.00300
C459        C  0.15926773  0.83739195  0.10180978    -0.08900
C460        C  0.15419595  0.85625309  0.13377651    -0.06300
C461        C  0.11022748  0.87420705  0.14609044    -0.00400
C462        C  0.07256655  0.88520897  0.12254315    -0.08800
C463        C  0.02626142  0.91471573  0.13094633     0.61600
H464        H  0.05144854  0.87645077  0.07105160     0.12200
H465        H  0.18619816  0.85790030  0.14908881     0.12300
C466        C  0.20516967  0.80809390  0.09415390     0.61800
F467        F  0.24730029  0.92111572  0.10848369    -0.23400
F468        F  0.03721746  0.96350887  0.14646911    -0.20700
F469        F  0.99610652  0.88322560  0.15083569    -0.20400
F470        F  0.23091962  0.83405779  0.06919448    -0.20400
F471        F  0.19165524  0.75593497  0.08504230    -0.20800
F472        F  0.97482481  0.78589641  0.12700714    -0.23400
C473        C  0.10146148  0.62292957  0.90657334    -0.06300
C474        C  0.14025467  0.65334874  0.92075409    -0.00300
C475        C  0.18177636  0.66686537  0.90121155    -0.08900
C476        C  0.17970714  0.65626848  0.86732641    -0.06300
C477        C  0.13960688  0.62906571  0.85209444    -0.00400
C478        C  0.10011787  0.60916882  0.87286249    -0.08800
C479        C  0.05453790  0.57664577  0.86060061     0.61600
H480        H  0.07111528  0.61140029  0.92227415     0.12200
H481        H  0.21037728  0.66946397  0.85277500     0.12300
C482        C  0.22857810  0.69287299  0.91539422     0.61800
F483        F  0.02534092  0.55835328  0.88632098    -0.23400
F484        F  0.06633653  0.53128800  0.84305663    -0.20700
F485        F  0.02626701  0.60856874  0.84123538    -0.20400
F486        F  0.24496013  0.66187348  0.94115563    -0.20400
F487        F  0.22106057  0.74505966  0.92589897    -0.20800
F488        F  0.26523767  0.69617601  0.89249933    -0.23400
C489        C  0.16758512  0.88372074  0.87337803    -0.06300
C490        C  0.13627618  0.85658631  0.85026059    -0.00300
C491        C  0.10613387  0.81220975  0.86144968    -0.08900
C492        C  0.10168672  0.80389574  0.89544474    -0.06300
C493        C  0.13031733  0.83358759  0.91848546    -0.00400
C494        C  0.16423395  0.87409779  0.90739048    -0.08800
C495        C  0.19369610  0.90999503  0.93128496     0.61600
H496        H  0.19371858  0.91449489  0.86460853     0.12200
H497        H  0.07811153  0.77057667  0.90412176     0.12300
C498        C  0.08395683  0.76791213  0.83926756     0.61800
F499        F  0.22061765  0.95068686  0.91524598    -0.23400
F500        F  0.22583190  0.87976382  0.94901811    -0.20700
F501        F  0.16226807  0.93435195  0.95266589    -0.20400
F502        F  0.10711771  0.76515095  0.80923638    -0.20400
F503        F  0.03455624  0.77436204  0.83497210    -0.20800
F504        F  0.08922148  0.71867625  0.85397924    -0.23400
O505        O  0.33552890  0.20537649  0.96234281    -0.74900
O506        O  0.32579361  0.30906751  0.03338537    -0.74900
O507        O  0.33289796  0.31290186  0.96512848    -0.75000
O508        O  0.32686375  0.20098355  0.02990985    -0.75100
O509        O  0.40704202  0.20884486  0.03658964    -0.75000
O510        O  0.41390974  0.31457562  0.96760176    -0.75000
O511        O  0.40636292  0.31733207  0.03437114    -0.74900
O512        O  0.41559109  0.20704093  0.97018228    -0.75000
Ni513      Ni  0.32719392  0.25700669  0.99752593     1.25400
Ni514      Ni  0.41349990  0.26227317  0.00238650     1.25400
C515        C  0.37819283  0.19223370  0.95325082     0.87300
C516        C  0.36555231  0.32581398  0.04770876     0.87200
C517        C  0.37453076  0.32671211  0.95295143     0.87200
C518        C  0.36512929  0.19086089  0.04640185     0.87400
C519        C  0.36270177  0.12331412  0.18460506     0.86000
C520        C  0.32129962  0.14392444  0.20637721    -0.54200
C521        C  0.31960996  0.12244645  0.23737139     0.08900
C522        C  0.36098134  0.08097484  0.24351060     0.19900
C523        C  0.40797940  0.13858634  0.20511314    -0.55000
C524        C  0.40761775  0.11781821  0.23613980     0.09000
C525        C  0.35441527  0.06234763  0.18588511    -0.54500
C526        C  0.35745739  0.03699910  0.21565365     0.09600
H527        H  0.29859111  0.17673844  0.19955549     0.14100
H528        H  0.35978631  0.06092895  0.26766936    -0.00100
H529        H  0.43435221  0.16958505  0.19706574     0.14400
H530        H  0.34424845  0.04212691  0.16320565     0.14200
C531        C  0.35583942  0.38099589  0.18833002     0.86000
C532        C  0.39622584  0.35869820  0.21038142    -0.54200
C533        C  0.39965220  0.38073371  0.24118950     0.08900
C534        C  0.35916021  0.42385659  0.24735936     0.19900
C535        C  0.31008521  0.36819222  0.20845576    -0.55000
C536        C  0.31122054  0.38871639  0.23981601     0.09000
C537        C  0.36583449  0.44129535  0.18957013    -0.54500
C538        C  0.36334854  0.46759348  0.21894118     0.09600
H539        H  0.41708091  0.32433118  0.20358105     0.14100
H540        H  0.36076297  0.44300208  0.27191711    -0.00100
H541        H  0.28280094  0.33870135  0.19973750     0.14400
H542        H  0.37524610  0.46051214  0.16668835     0.14200
C543        C  0.48506357  0.13045204  0.31471502     0.86000
C544        C  0.44150913  0.11648894  0.29257079    -0.54200
C545        C  0.44454533  0.13614472  0.26146517     0.08900
C546        C  0.49032754  0.17525323  0.25622607     0.19900
C547        C  0.28705508  0.12480422  0.29479812    -0.55000
C548        C  0.28547813  0.14342931  0.26312545     0.09000
C549        C  0.48479997  0.19184169  0.31458795    -0.54500
C550        C  0.48887153  0.21833510  0.28494269     0.09600
H551        H  0.40836199  0.09820836  0.30145078     0.14100
H552        H  0.49154505  0.19542777  0.23209920    -0.00100
H553        H  0.31572471  0.10053075  0.30433434     0.14400
H554        H  0.47595761  0.21122221  0.33751879     0.14200
C555        C  0.23077670  0.36984524  0.31774805     0.86000
C556        C  0.27429187  0.38966518  0.29638305    -0.54200
C557        C  0.27401918  0.36993633  0.26497722     0.08900
C558        C  0.22925899  0.33039207  0.25801337     0.19900
C559        C  0.43739851  0.37778100  0.29752729    -0.55000
C560        C  0.43629383  0.35986701  0.26589931     0.09000
C561        C  0.22723690  0.30904910  0.31558856    -0.54500
C562        C  0.23107520  0.28556104  0.28544655     0.09600
H563        H  0.30118781  0.41957847  0.30470043     0.14100
H564        H  0.22843641  0.31151316  0.23349924    -0.00100
H565        H  0.40979787  0.40283215  0.30753742     0.14400
H566        H  0.22067447  0.28660031  0.33813174     0.14200
O567        O  0.28450008  0.04410890  0.46249451    -0.74900
O568        O  0.28222247  0.45139621  0.53482393    -0.74900
O569        O  0.27632617  0.44698018  0.46753402    -0.75000
O570        O  0.29324835  0.04822608  0.53003267    -0.75100
O571        O  0.45395868  0.05128099  0.53676981    -0.75000
O572        O  0.45246228  0.45566406  0.46712331    -0.75000
O573        O  0.45840708  0.45394115  0.53472600    -0.74900
O574        O  0.44954300  0.05241281  0.46869341    -0.75000
Ni575      Ni  0.28643020  0.50294808  0.49971862     1.25400
Ni576      Ni  0.45764058  0.50872722  0.50155035     1.25400
C577        C  0.24401698  0.06115090  0.45185139     0.87300
C578        C  0.49844785  0.43817001  0.54699179     0.87200
C579        C  0.49059540  0.43849814  0.45327154     0.87200
C580        C  0.25602222  0.06485664  0.54538838     0.87400
C581        C  0.38955434  0.11565545  0.81712535     0.86000
C582        C  0.43098522  0.13989711  0.79510750    -0.54200
C583        C  0.43196048  0.11836033  0.76391079     0.08900
C584        C  0.38986674  0.07373710  0.75806644     0.19900
C585        C  0.34390175  0.12693239  0.79697174    -0.55000
C586        C  0.34385602  0.10794027  0.76554895     0.09000
C587        C  0.39793026  0.05582024  0.81580976    -0.54500
C588        C  0.39482144  0.02992228  0.78615300     0.09600
H589        H  0.45498861  0.17375548  0.80231978     0.14100
H590        H  0.39003547  0.05381369  0.73379793    -0.00100
H591        H  0.31816968  0.15582726  0.80535102     0.14400
H592        H  0.40962775  0.03755890  0.83842279     0.14200
C593        C  0.38259379  0.38058704  0.81353072     0.86000
C594        C  0.33667371  0.36878782  0.79282551    -0.54200
C595        C  0.33912576  0.38652181  0.76113726     0.08900
C596        C  0.38680100  0.42234748  0.75445408     0.19900
C597        C  0.42537818  0.36125262  0.79337309    -0.55000
C598        C  0.42767204  0.38089935  0.76215652     0.09000
C599        C  0.38584624  0.44188691  0.81250686    -0.54500
C600        C  0.38984210  0.46707789  0.78249517     0.09600
H601        H  0.30397730  0.35008553  0.80286959     0.14100
H602        H  0.38810256  0.44093729  0.72978262    -0.00100
H603        H  0.45011385  0.33188794  0.80286586     0.14400
H604        H  0.37937348  0.46232223  0.83537002     0.14200
C605        C  0.27168712  0.12875436  0.68531642     0.86000
C606        C  0.31291184  0.11296351  0.70816719    -0.54200
C607        C  0.31043228  0.13097863  0.73963896     0.08900
C608        C  0.26750709  0.17105673  0.74466401     0.19900
C609        C  0.46610309  0.12079358  0.70644957    -0.55000
C610        C  0.46735593  0.14006301  0.73810401     0.09000
C611        C  0.27790019  0.19014200  0.68690894    -0.54500
C612        C  0.51822850  0.21987036  0.71691594     0.09600
H613        H  0.34381472  0.09243428  0.70039055     0.14100
H614        H  0.26740172  0.19030972  0.76910635    -0.00100
H615        H  0.43696419  0.09419182  0.69693807     0.14400
H616        H  0.29008880  0.21157368  0.66505071     0.14200
C617        C  0.50513249  0.36907161  0.68500086     0.86000
C618        C  0.46011397  0.37676285  0.70583271    -0.54200
C619        C  0.46315046  0.36003203  0.73740649     0.08900
C620        C  0.50996698  0.32682353  0.74404670     0.19900
C621        C  0.29888274  0.38565206  0.70495527    -0.55000
C622        C  0.30172539  0.36576296  0.73624324     0.09000
C623        C  0.50751745  0.30758378  0.68576662    -0.54500
C624        C  0.51251117  0.28274279  0.71589910     0.09600
H625        H  0.42688627  0.39151118  0.69601795     0.14100
H626        H  0.51097929  0.30782837  0.76857679    -0.00100
H627        H  0.32412885  0.41676440  0.69545359     0.14400
H628        H  0.50101799  0.28632107  0.66287593     0.14200
C629        C  0.46718328  0.43823910  0.60317908    -0.06300
C630        C  0.49741696  0.41367803  0.58041795    -0.00300
C631        C  0.27413010  0.37281971  0.59088304    -0.08900
C632        C  0.27910094  0.35951126  0.62437825    -0.06300
C633        C  0.50406214  0.39140823  0.64933657    -0.00400
C634        C  0.47195166  0.43112239  0.63732095    -0.08800
C635        C  0.44611269  0.47225629  0.65813418     0.61600
H636        H  0.44226029  0.46792212  0.59427304     0.12200
H637        H  0.30412824  0.32864254  0.63114557     0.12300
C638        C  0.30372533  0.34340531  0.56560838     0.61800
F639        F  0.44949161  0.52242519  0.64307891    -0.23400
F640        F  0.46627579  0.47951485  0.68909154    -0.20700
F641        F  0.39722309  0.45674943  0.66044006    -0.20400
F642        F  0.34671091  0.37316681  0.55977264    -0.20400
F643        F  0.27801604  0.33655528  0.53641961    -0.20800
F644        F  0.31496478  0.29230115  0.57668085    -0.23400
C645        C  0.29090193  0.05597499  0.60001434    -0.06300
C646        C  0.26325559  0.08718251  0.57908636    -0.00300
C647        C  0.46049604  0.11727390  0.59891603    -0.08900
C648        C  0.46709983  0.12872030  0.63272285    -0.06300
C649        C  0.27047977  0.10995694  0.64837471    -0.00400
C650        C  0.29546668  0.06583985  0.63400304    -0.08800
C651        C  0.32724621  0.02761371  0.65236961     0.61600
H652        H  0.30878673  0.02207852  0.58910426     0.12200
H653        H  0.43773177  0.14622778  0.64617016     0.12300
C654        C  0.41304654  0.13076470  0.58214504     0.61800
F655        F  0.30693537  0.01228997  0.68203222    -0.23400
F656        F  0.37263212  0.05298378  0.65648512    -0.20700
F657        F  0.33357756  0.98021176  0.63491821    -0.20400
F658        F  0.38717013  0.08355390  0.57348528    -0.20400
F659        F  0.42290473  0.16134297  0.55427839    -0.20800
F660        F  0.38372376  0.16037631  0.60242633    -0.23400
C661        C  0.46648711  0.35056438  0.37788722    -0.06300
C662        C  0.23319523  0.38365262  0.35477729    -0.00300
C663        C  0.27638883  0.38034403  0.37463962    -0.08900
C664        C  0.27385845  0.39369894  0.40813760    -0.07300
C665        C  0.23000283  0.40513020  0.42363774    -0.00400
C666        C  0.46824344  0.36525504  0.41136160    -0.08800
C667        C  0.45040787  0.32599208  0.43781328     0.61600
H668        H  0.45140484  0.31060952  0.37157101     0.12200
H669        H  0.30742031  0.39738148  0.42224712     0.12300
C670        C  0.32660361  0.36606449  0.36224029     0.61800
F671        F  0.43553196  0.27589370  0.42487435    -0.23400
F672        F  0.41125863  0.34718251  0.45391562    -0.20700
F673        F  0.48742074  0.31821716  0.46030188    -0.20400
F674        F  0.35110474  0.41246296  0.35097400    -0.20400
F675        F  0.32403057  0.32674380  0.33800950    -0.20800
F676        F  0.35434809  0.34533207  0.38739894    -0.23400
C677        C  0.52037069  0.13474462  0.37176487    -0.06300
C678        C  0.48469886  0.10953458  0.35073257    -0.00300
C679        C  0.24935205  0.06156533  0.35954155    -0.08900
C680        C  0.25180153  0.04704941  0.39289016    -0.06300
C681        C  0.48541470  0.09095003  0.42015186    -0.00400
C682        C  0.52167701  0.12584491  0.40592666    -0.08800
C683        C  0.56261901  0.15267927  0.42618513     0.61600
H684        H  0.54812433  0.16168308  0.36094198     0.12200
H685        H  0.25904676  0.00544883  0.39927290     0.12300
C686        C  0.24941046  0.01429926  0.33576740     0.61800
F687        F  0.58315959  0.19784247  0.41040556    -0.23400
F688        F  0.59855285  0.11595463  0.43115509    -0.20700
F689        F  0.54540933  0.16967225  0.45624145    -0.20400
F690        F  0.28841576  0.98298323  0.34326932    -0.20400
F691        F  0.25168872  0.02674726  0.30288626    -0.20800
F692        F  0.20635512  0.98465463  0.34033797    -0.23400
C693        C  0.40092686  0.13898561  0.09249132    -0.06300
C694        C  0.36086327  0.16487421  0.07947236    -0.00300
C695        C  0.32078437  0.17298407  0.10028170    -0.08900
C696        C  0.32482798  0.16190191  0.13387994    -0.06300
C697        C  0.36615825  0.14014454  0.14806263    -0.00400
C698        C  0.40448658  0.12497169  0.12614153    -0.08800
C699        C  0.44891849  0.09337118  0.13660030     0.61600
H700        H  0.42943051  0.12937995  0.07560536     0.12200
H701        H  0.29370143  0.16809741  0.14891689     0.12300
C702        C  0.27329475  0.19370923  0.08782783     0.61800
F703        F  0.47834801  0.08194485  0.11015682    -0.23400
F704        F  0.43489150  0.04415925  0.15042147    -0.20700
F705        F  0.47773885  0.12278234  0.15861775    -0.20400
F706        F  0.25507766  0.16104144  0.06252874    -0.20400
F707        F  0.28069856  0.24639412  0.07709839    -0.20800
F708        F  0.23869726  0.19318792  0.11232209    -0.23400
C709        C  0.32356595  0.37112688  0.09443855    -0.06300
C710        C  0.36528506  0.34757916  0.08222906    -0.00300
C711        C  0.40409479  0.33892009  0.10458059    -0.08900
C712        C  0.39721489  0.34719973  0.13813777    -0.06300
C713        C  0.35379313  0.36504252  0.15146448    -0.00400
C714        C  0.31701243  0.38167982  0.12847075    -0.08800
C715        C  0.27195710  0.41263338  0.13827812     0.61600
H716        H  0.29666446  0.38246493  0.07659758     0.12200
H717        H  0.42797980  0.34223814  0.15397797     0.12300
C718        C  0.45265824  0.31829233  0.09405751     0.61800
F719        F  0.49676451  0.43166463  0.10928498    -0.23400
F720        F  0.28492471  0.46039007  0.15431042    -0.20700
F721        F  0.24163497  0.38167726  0.15830282    -0.20400
F722        F  0.47377182  0.35166282  0.07033416    -0.20400
F723        F  0.44467604  0.26679308  0.08180105    -0.20800
F724        F  0.22285474  0.29304264  0.12653331    -0.23400
C725        C  0.34692297  0.13218536  0.90797669    -0.06300
C726        C  0.38511366  0.16503630  0.92098201    -0.00300
C727        C  0.42684895  0.17646794  0.90128219    -0.08900
C728        C  0.42605871  0.16019023  0.86822710    -0.06300
C729        C  0.38596799  0.13187625  0.85372789    -0.00400
C730        C  0.34655249  0.11367387  0.87506996    -0.08800
C731        C  0.30269617  0.07681006  0.86442395     0.61600
H732        H  0.31644604  0.12217835  0.92390874     0.12200
H733        H  0.45794332  0.16921017  0.85378941     0.12300
C734        C  0.47237981  0.20661009  0.91435998     0.61800
F735        F  0.27457836  0.06004335  0.89103829    -0.23400
F736        F  0.31709381  0.03018177  0.84925457    -0.20700
F737        F  0.27263046  0.10398734  0.84353475    -0.20400
F738        F  0.49059347  0.17938226  0.94109068    -0.20400
F739        F  0.46213123  0.25903881  0.92295998    -0.20800
F740        F  0.50866073  0.20999794  0.89130875    -0.23400
C741        C  0.41685292  0.38715810  0.87124725    -0.06300
C742        C  0.38357798  0.36030322  0.84925408    -0.00300
C743        C  0.35116402  0.31957429  0.86214502    -0.08900
C744        C  0.34548589  0.31625444  0.89635300    -0.06300
C745        C  0.37661657  0.34532989  0.91834089    -0.00400
C746        C  0.41394565  0.38060083  0.90558158    -0.08800
C747        C  0.44914281  0.41300930  0.92784305     0.61600
H748        H  0.44455695  0.41495886  0.86118505     0.12200
H749        H  0.31963787  0.28591302  0.90605066     0.12300
C750        C  0.32841625  0.27303919  0.84200442     0.61800
F751        F  0.47697340  0.45130862  0.91044913    -0.23400
F752        F  0.48075423  0.37886234  0.94313453    -0.20700
F753        F  0.42330538  0.44012616  0.95137711    -0.20400
F754        F  0.34968012  0.26766938  0.81151366    -0.20400
F755        F  0.27873396  0.27877354  0.83869470    -0.20800
F756        F  0.33564159  0.22531963  0.85818983    -0.23400
O757        O  0.34175893  0.69640599  0.96183827    -0.74900
O758        O  0.33336347  0.79943548  0.03332668    -0.74900
O759        O  0.34228740  0.80384891  0.96596855    -0.75000
O760        O  0.33038243  0.69052961  0.02937944    -0.75100
O761        O  0.41073686  0.69186986  0.03563139    -0.75000
O762        O  0.42313426  0.80440050  0.97022914    -0.75000
O763        O  0.41400900  0.80110816  0.03795328    -0.74900
O764        O  0.42192194  0.69669921  0.96922099    -0.75000
Ni765      Ni  0.33402998  0.74745494  0.99748902     1.25400
Ni766      Ni  0.42027066  0.74877688  0.00355532     1.25400
C767        C  0.38423305  0.68352905  0.95209757     0.87300
C768        C  0.37254666  0.81337515  0.04924016     0.87200
C769        C  0.38449607  0.81733461  0.95476413     0.87200
C770        C  0.36792387  0.67640685  0.04535066     0.87400
C771        C  0.36776928  0.61557594  0.18499227     0.86000
C772        C  0.32625557  0.63704016  0.20638145    -0.54200
C773        C  0.32428905  0.61740866  0.23773295     0.08900
C774        C  0.36603404  0.57668312  0.24502784     0.19900
C775        C  0.41348544  0.63117595  0.20528542    -0.55000
C776        C  0.41275497  0.61315849  0.23713547     0.09000
C777        C  0.35896938  0.55505605  0.18761585    -0.54500
C778        C  0.36247333  0.53103208  0.21779235     0.09600
H779        H  0.30189922  0.66757630  0.19889697     0.14100
H780        H  0.36521048  0.55892871  0.26987729    -0.00100
H781        H  0.44109759  0.65967965  0.19589864     0.14400
H782        H  0.34695241  0.53418016  0.16550526     0.14200
C783        C  0.35612370  0.88719187  0.18603527     0.86000
C784        C  0.39976115  0.87094186  0.20740791    -0.54200
C785        C  0.40078048  0.89062024  0.23881013     0.08900
C786        C  0.35746404  0.92970517  0.24522477     0.19900
C787        C  0.31151190  0.87101825  0.20646087    -0.55000
C788        C  0.31184056  0.89070987  0.23795463     0.09000
C789        C  0.36201033  0.94796769  0.18674301    -0.54500
C790        C  0.35895136  0.97372726  0.21642194     0.09600
H791        H  0.42866306  0.84720154  0.19830860     0.14100
H792        H  0.35779435  0.94835390  0.26997898    -0.00100
H793        H  0.28358238  0.84343233  0.19634440     0.14400
H794        H  0.37150972  0.96769254  0.16392596     0.14200
C795        C  0.48835979  0.64232123  0.31644308     0.86000
C796        C  0.44847425  0.61638547  0.29426958    -0.54200
C797        C  0.44799019  0.63632825  0.26275774     0.08900
C798        C  0.48992297  0.68113695  0.25662168     0.19900
C799        C  0.28926900  0.62234820  0.29438063    -0.55000
C800        C  0.28840913  0.63886034  0.26232356     0.09000
C801        C  0.48146676  0.70222549  0.31405433    -0.54500
C802        C  0.48476908  0.72628727  0.28397220     0.09600
H803        H  0.42451279  0.58340788  0.30255999     0.14100
H804        H  0.49011692  0.69900432  0.23180764    -0.00100
H805        H  0.31653910  0.59669698  0.30447140     0.14400
H806        H  0.47108023  0.72282931  0.33626025     0.14200
C807        C  0.22809070  0.86633152  0.31454378     0.86000
C808        C  0.27351453  0.88701762  0.29471807    -0.54200
C809        C  0.27463257  0.86965938  0.26274583     0.08900
C810        C  0.23054814  0.83020223  0.25424431     0.19900
C811        C  0.44268519  0.89166329  0.29454890    -0.55000
C812        C  0.43865269  0.87126837  0.26330914     0.09000
C813        C  0.22295267  0.80587420  0.31107129    -0.54500
C814        C  0.23082528  0.78400046  0.28103791     0.09600
H815        H  0.30184763  0.91368569  0.30509533     0.14100
H816        H  0.23086395  0.81248105  0.22945056    -0.00100
H817        H  0.41636515  0.91822163  0.30486206     0.14400
H818        H  0.21459577  0.78177256  0.33282724     0.14200
O819        O  0.28564649  0.55443103  0.46458826    -0.74900
O820        O  0.28429541  0.94054699  0.53235384    -0.74900
O821        O  0.27438568  0.93682292  0.46487294    -0.75000
O822        O  0.29008976  0.55921528  0.53219902    -0.75100
O823        O  0.46868397  0.56159274  0.53546851    -0.75000
O824        O  0.45258940  0.94538592  0.46752067    -0.75000
O825        O  0.45735217  0.94405258  0.53577182    -0.74900
O826        O  0.46242598  0.56339880  0.46852353    -0.75000
Ni827      Ni  0.28691370  0.99226559  0.49726038     1.25400
Ni828      Ni  0.45040108  0.99794546  0.50228949     1.25400
C829        C  0.24553367  0.57019436  0.45257271     0.87300
C830        C  0.49919842  0.93462383  0.54816797     0.87200
C831        C  0.49292036  0.93596406  0.45337770     0.87200
C832        C  0.25184547  0.57590123  0.54634426     0.87400
C833        C  0.39189814  0.61612203  0.81372324     0.86000
C834        C  0.43359330  0.63850311  0.79158446    -0.54200
C835        C  0.43378639  0.61709775  0.76025703     0.08900
C836        C  0.38928349  0.57508323  0.75423219     0.19900
C837        C  0.34655936  0.62987554  0.79414248    -0.55000
C838        C  0.34440869  0.61060530  0.76283904     0.09000
C839        C  0.39827625  0.55605224  0.81182668    -0.54500
C840        C  0.39267197  0.53059263  0.78215785     0.09600
H841        H  0.45932510  0.67014465  0.79937570     0.14100
H842        H  0.38838191  0.55697039  0.72936046    -0.00100
H843        H  0.32215019  0.65968958  0.80308012     0.14400
H844        H  0.41118008  0.53681649  0.83388501     0.14200
C845        C  0.38897099  0.87857132  0.81575413     0.86000
C846        C  0.34218854  0.86860987  0.79518638    -0.54200
C847        C  0.34413589  0.88771769  0.76366259     0.08900
C848        C  0.39221140  0.92248487  0.75714560     0.19900
C849        C  0.43057465  0.85892545  0.79479709    -0.55000
C850        C  0.43232454  0.87935027  0.76379095     0.09000
C851        C  0.39371466  0.93994186  0.81562168    -0.54500
C852        C  0.39585569  0.96632200  0.78588950     0.09600
H853        H  0.30934837  0.85026741  0.80515655     0.14100
H854        H  0.39366262  0.94166646  0.73262907    -0.00100
H855        H  0.45453044  0.82815745  0.80350650     0.14400
H856        H  0.38923203  0.95933076  0.83902405     0.14200
C857        C  0.26751307  0.63555194  0.68523272     0.86000
C858        C  0.30547336  0.61123755  0.70755518    -0.54200
C859        C  0.30871439  0.63293236  0.73829060     0.08900
C860        C  0.26815025  0.67592383  0.74471267     0.19900
C861        C  0.47496925  0.61521998  0.70408388    -0.55000
C862        C  0.47296738  0.63490055  0.73564896     0.09000
C863        C  0.27732425  0.69620557  0.68727088    -0.54500
C864        C  0.52210635  0.71681810  0.71652193     0.09600
H865        H  0.32196691  0.57376605  0.70194139     0.14100
H866        H  0.26922990  0.69430413  0.76944337    -0.00100
H867        H  0.44660897  0.58852654  0.69358776     0.14400
H868        H  0.28805373  0.71737481  0.66501643     0.14200
C869        C  0.50733648  0.86514654  0.68567727     0.86000
C870        C  0.46222518  0.87298515  0.70671503    -0.54200
C871        C  0.46563113  0.85624075  0.73827922     0.08900
C872        C  0.51241090  0.82281877  0.74448505     0.19900
C873        C  0.30292672  0.89126381  0.70744768    -0.55000
C874        C  0.30549376  0.87004809  0.73857335     0.09000
C875        C  0.50962956  0.80393659  0.68616663    -0.54500
C876        C  0.51505328  0.77916928  0.71612100     0.09600
H877        H  0.42897340  0.88806486  0.69749107     0.14100
H878        H  0.51370897  0.80331796  0.76883430    -0.00100
H879        H  0.32965466  0.92075826  0.69808227     0.14400
H880        H  0.50291848  0.78245327  0.66329622     0.14200
C881        C  0.47182269  0.93709543  0.60521446    -0.06300
C882        C  0.50152219  0.91256458  0.58207555    -0.00300
C883        C  0.28374580  0.87552161  0.59383163    -0.08900
C884        C  0.28863544  0.86876255  0.62812708    -0.06300
C885        C  0.50739273  0.88739783  0.65027603    -0.00400
C886        C  0.47728070  0.92887481  0.63918251    -0.08800
C887        C  0.45707193  0.97129721  0.66162447     0.61600
H888        H  0.44714072  0.96741799  0.59680922     0.12200
H889        H  0.31712548  0.84379281  0.63740233     0.12300
C890        C  0.31778096  0.84689189  0.57097377     0.61800
F891        F  0.45946771  0.02049436  0.64607116    -0.23400
F892        F  0.48341561  0.97780982  0.69056663    -0.20700
F893        F  0.40883540  0.95865613  0.66819317    -0.20400
F894        F  0.35481858  0.88292186  0.56098740    -0.20400
F895        F  0.29249308  0.82681046  0.54369905    -0.20800
F896        F  0.33850291  0.80341957  0.58642572    -0.23400
C897        C  0.30151751  0.59715777  0.59567179    -0.06300
C898        C  0.25692111  0.60221133  0.57933525    -0.00300
C899        C  0.49202096  0.63730804  0.59272697    -0.08900
C900        C  0.49259061  0.64426650  0.62705789    -0.06300
C901        C  0.26629470  0.62084397  0.64839438    -0.00400
C902        C  0.30798435  0.60899661  0.62922721    -0.08800
C903        C  0.35977573  0.60841902  0.64237120     0.61600
H904        H  0.33180803  0.58188083  0.58208272     0.12200
H905        H  0.47085521  0.67555874  0.63744138     0.12300
C906        C  0.46577074  0.67634856  0.57072350     0.61800
F907        F  0.36655808  0.56003972  0.65821329    -0.23400
F908        F  0.37041692  0.65207568  0.66298824    -0.20700
F909        F  0.39303963  0.61196872  0.61711170    -0.20400
F910        F  0.42642488  0.64993998  0.55534660    -0.20400
F911        F  0.49764183  0.69688976  0.54711369    -0.20800
F912        F  0.44878382  0.71970408  0.58833641    -0.23400
C913        C  0.46001047  0.86805826  0.37176805    -0.06300
C914        C  0.22922179  0.87730132  0.35181398    -0.00300
C915        C  0.27079818  0.86836586  0.37216314    -0.08900
C916        C  0.26916381  0.88285057  0.40551009    -0.07300
C917        C  0.22625824  0.89790118  0.42083817    -0.00400
C918        C  0.46129399  0.87639815  0.40599179    -0.08800
C919        C  0.43053121  0.84003263  0.42851530     0.61600
H920        H  0.43539144  0.83633067  0.36207589     0.12200
H921        H  0.30241177  0.88180206  0.41991031     0.12300
C922        C  0.31798699  0.84307551  0.36191621     0.61800
F923        F  0.41268622  0.79375915  0.41240569    -0.23400
F924        F  0.39164377  0.86808292  0.44010261    -0.20700
F925        F  0.45830977  0.82351839  0.45483649    -0.20400
F926        F  0.35498875  0.88285407  0.36275054    -0.20400
F927        F  0.31751612  0.81870313  0.33149270    -0.20800
F928        F  0.32834664  0.80279641  0.38419504    -0.23400
C929        C  0.53524934  0.63291883  0.36950671    -0.06300
C930        C  0.48937054  0.62845939  0.35340128    -0.00300
C931        C  0.24710247  0.56698059  0.36023322    -0.08900
C932        C  0.24876885  0.55313099  0.39368775    -0.06300
C933        C  0.49983570  0.60425213  0.42141881    -0.00400
C934        C  0.54132288  0.62152204  0.40306801    -0.08800
C935        C  0.59188877  0.62856865  0.41827883     0.61600
H936        H  0.56717530  0.64589841  0.35573466     0.12200
H937        H  0.25118800  0.51080579  0.40041687     0.12300
C938        C  0.24442280  0.51890999  0.33702549     0.61800
F939        F  0.62275967  0.66086053  0.39893859    -0.23400
F940        F  0.61217754  0.57857634  0.42169909    -0.20700
F941        F  0.58917812  0.65346029  0.44869571    -0.20400
F942        F  0.28481736  0.48907547  0.34276091    -0.20400
F943        F  0.24253085  0.52964895  0.30392156    -0.20800
F944        F  0.20247340  0.48871501  0.34431495    -0.23400
C945        C  0.39982161  0.61963124  0.09090721    -0.06300
C946        C  0.36217096  0.65023750  0.07843037    -0.00300
C947        C  0.32620736  0.66675556  0.10058974    -0.08900
C948        C  0.33345204  0.66050617  0.13438153    -0.06300
C949        C  0.37073176  0.63034154  0.14779641    -0.00400
C950        C  0.40485647  0.60808223  0.12495738    -0.08800
C951        C  0.44776555  0.57372487  0.13503670     0.61600
H952        H  0.42615659  0.60594885  0.07345170     0.12200
H953        H  0.30857516  0.67986786  0.15008650     0.12300
C954        C  0.28014353  0.69253614  0.08948948     0.61800
F955        F  0.47632512  0.56105672  0.10838968    -0.23400
F956        F  0.43201881  0.52507585  0.14843531    -0.20700
F957        F  0.47777665  0.60098932  0.15736043    -0.20400
F958        F  0.25810352  0.66213511  0.06454997    -0.20400
F959        F  0.29108608  0.74439892  0.07875859    -0.20800
F960        F  0.24703643  0.69539413  0.11483868    -0.23400
C961        C  0.33346833  0.87305223  0.09112722    -0.06300
C962        C  0.36952990  0.83669835  0.08327332    -0.00300
C963        C  0.39723535  0.81584914  0.10954568    -0.08900
C964        C  0.38336462  0.82474168  0.14183111    -0.06300
C965        C  0.35277581  0.86597184  0.15022691    -0.00400
C966        C  0.32496756  0.88936868  0.12403219    -0.08800
C967        C  0.28729533  0.93238704  0.12848193     0.61600
H968        H  0.31243338  0.88970673  0.07123624     0.12200
H969        H  0.39830005  0.79987334  0.16077507     0.12300
C970        C  0.44230009  0.78488020  0.10437261     0.61800
F971        F  0.49834773  0.92264210  0.10436869    -0.23400
F972        F  0.30752440  0.98236533  0.11921936    -0.20700
F973        F  0.27016920  0.93568565  0.16018823    -0.20400
F974        F  0.47470746  0.81541133  0.08549323    -0.20400
F975        F  0.42936703  0.73755335  0.08878578    -0.20800
F976        F  0.23619418  0.80485720  0.12100928    -0.23400
C977        C  0.35159130  0.62753072  0.90538702    -0.06300
C978        C  0.39039778  0.65880798  0.91891771    -0.00300
C979        C  0.43152209  0.67176478  0.89889489    -0.08900
C980        C  0.42929200  0.65919171  0.86523154    -0.06300
C981        C  0.38910566  0.63121864  0.85058236    -0.00400
C982        C  0.34992176  0.61212084  0.87189488    -0.08800
C983        C  0.30454628  0.57825921  0.86051845     0.61600
H984        H  0.32157825  0.61639546  0.92146225     0.12200
H985        H  0.46020276  0.67080191  0.85048572     0.12300
C986        C  0.47840025  0.69835195  0.91246076     0.61800
F987        F  0.27550383  0.56167259  0.88670248    -0.23400
F988        F  0.31670354  0.53169662  0.84437983    -0.20700
F989        F  0.27595663  0.60819848  0.84017642    -0.20400
F990        F  0.49604881  0.66698363  0.93760015    -0.20400
F991        F  0.47047932  0.75004194  0.92370394    -0.20800
F992        F  0.51417255  0.70282771  0.88893102    -0.23400
C993        C  0.42561653  0.88128122  0.87329694    -0.06300
C994        C  0.39090544  0.85652784  0.85125736    -0.00300
C995        C  0.35855100  0.81545927  0.86390261    -0.08900
C996        C  0.35490502  0.80941879  0.89809622    -0.06300
C997        C  0.38724275  0.83655687  0.92019198    -0.00400
C998        C  0.42421277  0.87229755  0.90758507    -0.08800
C999        C  0.46014674  0.90293692  0.93016680     0.61600
H1000       H  0.45322004  0.90939870  0.86342789     0.12200
H1001       H  0.32885976  0.77900798  0.90753608     0.12300
C1002       C  0.33305942  0.77146351  0.84314234     0.61800
F1003       F  0.48788258  0.94206913  0.91337560    -0.23400
F1004       F  0.49165460  0.86742913  0.94434154    -0.20700
F1005       F  0.43504037  0.92876224  0.95463268    -0.20400
F1006       F  0.35368738  0.76626338  0.81243559    -0.20400
F1007       F  0.28384624  0.78054037  0.84046857    -0.20800
F1008       F  0.33765317  0.72243033  0.85831857    -0.23400
O1009       O  0.58560343  0.20428460  0.96261936    -0.74900
O1010       O  0.57991962  0.31037031  0.03292731    -0.74900
O1011       O  0.58681309  0.31165623  0.96499547    -0.75000
O1012       O  0.57639112  0.20143961  0.03072402    -0.75100
O1013       O  0.65683084  0.20246026  0.03598151    -0.75000
O1014       O  0.66768844  0.31141919  0.96843616    -0.75000
O1015       O  0.66062363  0.31186620  0.03613867    -0.74900
O1016       O  0.66569672  0.20394538  0.96952086    -0.75000
Ni1017     Ni  0.57920250  0.25687098  0.99773831     1.25400
Ni1018     Ni  0.66548702  0.25769929  0.00277978     1.25400
C1019       C  0.62780741  0.19083570  0.95264536     0.87300
C1020       C  0.61972967  0.32452424  0.04809334     0.87200
C1021       C  0.62886241  0.32390489  0.95307050     0.87200
C1022       C  0.61430804  0.18765096  0.04646053     0.87400
C1023       C  0.61266684  0.11994893  0.18513587     0.86000
C1024       C  0.57054944  0.13837074  0.20709628    -0.54200
C1025       C  0.56984093  0.11758726  0.23839176     0.08900
C1026       C  0.61278763  0.07772912  0.24428019     0.19900
C1027       C  0.65811926  0.13587867  0.20541714    -0.55000
C1028       C  0.65833507  0.11633553  0.23687963     0.09000
C1029       C  0.60522283  0.05927483  0.18611524    -0.54500
C1030       C  0.61021243  0.03376760  0.21552920     0.09600
H1031       H  0.54392425  0.16621023  0.19932452     0.14100
H1032       H  0.61297406  0.05875541  0.26886104    -0.00100
H1033       H  0.68613947  0.16329244  0.19542878     0.14400
H1034       H  0.59462406  0.03901984  0.16345445     0.14200
C1035       C  0.60515582  0.39077634  0.18669492     0.86000
C1036       C  0.64854185  0.37300321  0.20791106    -0.54200
C1037       C  0.64943940  0.39142680  0.23948721     0.08900
C1038       C  0.60659600  0.43067866  0.24648264     0.19900
C1039       C  0.56026422  0.37354666  0.20691521    -0.55000
C1040       C  0.56085929  0.39210771  0.23861526     0.09000
C1041       C  0.61131568  0.45163014  0.18869741    -0.54500
C1042       C  0.60851473  0.47618471  0.21886432     0.09600
H1043       H  0.67683650  0.34810961  0.19921421     0.14100
H1044       H  0.60731947  0.44880239  0.27128283    -0.00100
H1045       H  0.53215108  0.34583076  0.19698232     0.14400
H1046       H  0.62185621  0.47223947  0.16635861     0.14200
C1047       C  0.74155086  0.13708121  0.31382320     0.86000
C1048       C  0.69569792  0.11969148  0.29372573    -0.54200
C1049       C  0.69526232  0.13765011  0.26196704     0.08900
C1050       C  0.73930651  0.17777095  0.25439326     0.19900
C1051       C  0.53056919  0.11581685  0.29488642    -0.55000
C1052       C  0.53329146  0.13672592  0.26372179     0.09000
C1053       C  0.74604520  0.19823584  0.31196155    -0.54500
C1054       C  0.73886193  0.22230435  0.28228640     0.09600
H1055       H  0.66766140  0.09234476  0.30385123     0.14100
H1056       H  0.73866497  0.19632002  0.22978828    -0.00100
H1057       H  0.55742687  0.08930594  0.30463405     0.14400
H1058       H  0.76478393  0.22073688  0.33151071     0.14200
C1059       C  0.48398246  0.36650030  0.31686392     0.86000
C1060       C  0.52655185  0.38781115  0.29565169    -0.54200
C1061       C  0.52534794  0.36941870  0.26384953     0.08900
C1062       C  0.48208525  0.32613033  0.25742685     0.19900
C1063       C  0.68618478  0.38668074  0.29615082    -0.55000
C1064       C  0.68498556  0.36885949  0.26427079     0.09000
C1065       C  0.49079184  0.30622502  0.31509184    -0.54500
C1066       C  0.48686205  0.28140686  0.28516643     0.09600
H1067       H  0.55430033  0.41608652  0.30537273     0.14100
H1068       H  0.48155686  0.30806642  0.23259971    -0.00100
H1069       H  0.66084224  0.41524319  0.30544711     0.14400
H1070       H  0.50736275  0.28717181  0.33601269     0.14200
O1071       O  0.53058858  0.05790934  0.46565213    -0.74900
O1072       O  0.53939033  0.45065059  0.53319538    -0.74900
O1073       O  0.53321305  0.44858883  0.46522247    -0.75000
O1074       O  0.53463786  0.05974166  0.53303140    -0.75100
O1075       O  0.70768237  0.04814973  0.53352586    -0.75000
O1076       O  0.69504241  0.44983323  0.46917704    -0.75000
O1077       O  0.70127247  0.45275215  0.53658385    -0.74900
O1078       O  0.70106862  0.04691295  0.46513882    -0.75000
Ni1079     Ni  0.54404684  0.50314234  0.49806642     1.25400
Ni1080     Ni  0.70013751  0.50540310  0.50201568     1.25400
C1081       C  0.48876086  0.06868289  0.45398080     0.87300
C1082       C  0.74154043  0.43600726  0.54801430     0.87200
C1083       C  0.73246980  0.43211679  0.45484665     0.87200
C1084       C  0.49509094  0.06942308  0.54811622     0.87400
C1085       C  0.63900964  0.11734293  0.81482708     0.86000
C1086       C  0.68205327  0.13748693  0.79276269    -0.54200
C1087       C  0.68168079  0.11581546  0.76135229     0.08900
C1088       C  0.63654905  0.07489172  0.75561969     0.19900
C1089       C  0.59484377  0.13245912  0.79459800    -0.55000
C1090       C  0.59225244  0.11190252  0.76365034     0.09000
C1091       C  0.64312534  0.05683609  0.81358268    -0.54500
C1092       C  0.63944509  0.03087171  0.78390850     0.09600
H1093       H  0.70910365  0.16776700  0.80067184     0.14100
H1094       H  0.63542391  0.05620040  0.73091789    -0.00100
H1095       H  0.57065712  0.16274856  0.80326264     0.14400
H1096       H  0.65447031  0.03815183  0.83614711     0.14200
C1097       C  0.63544688  0.37868332  0.81329473     0.86000
C1098       C  0.58848466  0.37009083  0.79300316    -0.54200
C1099       C  0.59095873  0.38813710  0.76136536     0.08900
C1100       C  0.63983430  0.42150741  0.75446344     0.19900
C1101       C  0.67662679  0.35737941  0.79246179    -0.55000
C1102       C  0.67918617  0.37762839  0.76142069     0.09000
C1103       C  0.64160350  0.43989583  0.81273581    -0.54500
C1104       C  0.64477172  0.46576950  0.78286283     0.09600
H1105       H  0.55508177  0.35349204  0.80327631     0.14100
H1106       H  0.64145812  0.44025192  0.72985793    -0.00100
H1107       H  0.70015733  0.32637319  0.80141227     0.14400
H1108       H  0.63694364  0.45983360  0.83596347     0.14200
C1109       C  0.51291321  0.13328400  0.68653348     0.86000
C1110       C  0.55189205  0.11035174  0.70871605    -0.54200
C1111       C  0.55578519  0.13316162  0.73912634     0.08900
C1112       C  0.51485594  0.17593840  0.74540877     0.19900
C1113       C  0.72113666  0.11183617  0.70442385    -0.55000
C1114       C  0.72010736  0.13279539  0.73584196     0.09000
C1115       C  0.52203478  0.19402867  0.68751844    -0.54500
C1116       C  0.76775095  0.21462542  0.71472911     0.09600
H1117       H  0.56910437  0.07327446  0.70322900     0.14100
H1118       H  0.51603891  0.19506008  0.76995974    -0.00100
H1119       H  0.69278728  0.08427653  0.69471049     0.14400
H1120       H  0.53184684  0.21412077  0.66476907     0.14200
C1121       C  0.75553458  0.36366702  0.68383152     0.86000
C1122       C  0.71054229  0.37195993  0.70477416    -0.54200
C1123       C  0.71359128  0.35520564  0.73631483     0.08900
C1124       C  0.76025387  0.32142488  0.74262526     0.19900
C1125       C  0.54939643  0.39065205  0.70551180    -0.55000
C1126       C  0.55208571  0.37002234  0.73668007     0.09000
C1127       C  0.75727851  0.30228370  0.68433325    -0.54500
C1128       C  0.76232233  0.27741447  0.71427684     0.09600
H1129       H  0.67740932  0.38703466  0.69517656     0.14100
H1130       H  0.76133667  0.30219993  0.76708354    -0.00100
H1131       H  0.57598321  0.42019183  0.69594741     0.14400
H1132       H  0.74979280  0.28082110  0.66159846     0.14200
C1133       C  0.71709961  0.43843062  0.60530764    -0.06300
C1134       C  0.74221029  0.41093301  0.58095225    -0.00300
C1135       C  0.53140459  0.37674802  0.59200635    -0.08900
C1136       C  0.53517385  0.36766797  0.62615556    -0.06300
C1137       C  0.75452903  0.38654849  0.64867240    -0.00400
C1138       C  0.72563688  0.43005461  0.63890685    -0.08800
C1139       C  0.70883792  0.47334791  0.66216478     0.61600
H1140       H  0.69411000  0.47109045  0.59801426     0.12200
H1141       H  0.56187985  0.33979981  0.63475860     0.12300
C1142       C  0.56262775  0.34432068  0.56923340     0.61800
F1143       F  0.71321508  0.52309374  0.64705859    -0.23400
F1144       F  0.73642292  0.47716844  0.69068999    -0.20700
F1145       F  0.66044230  0.46330876  0.66957190    -0.20400
F1146       F  0.60968185  0.36677618  0.56930261    -0.20400
F1147       F  0.54475583  0.34299062  0.53735554    -0.20800
F1148       F  0.56350519  0.29106856  0.57998914    -0.23400
C1149       C  0.54363185  0.08835779  0.59786958    -0.06300
C1150       C  0.49908254  0.09408021  0.58156954    -0.00300
C1151       C  0.73177295  0.12702828  0.59144768    -0.08900
C1152       C  0.73508090  0.13716539  0.62572031    -0.06300
C1153       C  0.51041125  0.11701632  0.65002825    -0.00400
C1154       C  0.55124032  0.10274076  0.63087308    -0.08800
C1155       C  0.60366452  0.10411857  0.64297696     0.61600
H1156       H  0.57336201  0.07115387  0.58461057     0.12200
H1157       H  0.71432540  0.16952061  0.63580094     0.12300
C1158       C  0.70347831  0.16409097  0.56929748     0.61800
F1159       F  0.61267594  0.05664802  0.65928222    -0.23400
F1160       F  0.61445041  0.14894047  0.66263472    -0.20700
F1161       F  0.63533284  0.10771021  0.61688276    -0.20400
F1162       F  0.66547050  0.13527321  0.55389572    -0.20400
F1163       F  0.73437785  0.18642755  0.54569667    -0.20800
F1164       F  0.68401040  0.20621447  0.58675005    -0.23400
C1165       C  0.68635754  0.38679026  0.36987585    -0.06300
C1166       C  0.48220907  0.38698059  0.35246500    -0.00300
C1167       C  0.49300181  0.44177372  0.36133400    -0.08900
C1168       C  0.49829800  0.45489899  0.39472562    -0.07300
C1169       C  0.48667872  0.41751242  0.41959393    -0.00400
C1170       C  0.68374072  0.40097796  0.40332815    -0.08800
C1171       C  0.63443723  0.41498774  0.41709521     0.61600
H1172       H  0.65302757  0.38335453  0.35573111     0.12200
H1173       H  0.50920539  0.49622629  0.40151472     0.12300
C1174       C  0.49376850  0.48984136  0.33820382     0.61800
F1175       F  0.59683998  0.40322179  0.39505891    -0.23400
F1176       F  0.63429933  0.46996843  0.42394235    -0.20700
F1177       F  0.62470069  0.38529277  0.44532086    -0.20400
F1178       F  0.48456363  0.47853981  0.30557529    -0.20400
F1179       F  0.53828208  0.51813183  0.34078798    -0.20800
F1180       F  0.45712185  0.52199638  0.34816874    -0.23400
C1181       C  0.73142326  0.15145607  0.37632571    -0.06300
C1182       C  0.73967773  0.11545539  0.34953339    -0.00300
C1183       C  0.45052181  0.07097807  0.36528101    -0.08900
C1184       C  0.44958567  0.06620747  0.39973919    -0.06300
C1185       C  0.73998344  0.08011838  0.41639714    -0.00400
C1186       C  0.73261297  0.13484166  0.40949132    -0.08800
C1187       C  0.72726166  0.17531091  0.43722777     0.61600
H1188       H  0.72245959  0.19288563  0.37179470     0.12200
H1189       H  0.42285755  0.03817949  0.41077947     0.12300
C1190       C  0.41804116  0.02939681  0.34678582     0.61800
F1191       F  0.72090977  0.22734605  0.42565988    -0.23400
F1192       F  0.76876955  0.17640470  0.45669752    -0.20700
F1193       F  0.68742596  0.16006422  0.45627914    -0.20400
F1194       F  0.43753697  0.01578100  0.31684659    -0.20400
F1195       F  0.37208507  0.04915338  0.34284288    -0.20800
F1196       F  0.41277623  0.98143537  0.36433195    -0.23400
C1197       C  0.64583157  0.12903848  0.09156996    -0.06300
C1198       C  0.60938328  0.16204995  0.07980679    -0.00300
C1199       C  0.57437312  0.17922940  0.10252234    -0.08900
C1200       C  0.58170896  0.17148658  0.13619465    -0.06300
C1201       C  0.61667444  0.13742081  0.14860793    -0.00400
C1202       C  0.64968829  0.11465044  0.12518960    -0.08800
C1203       C  0.68753376  0.07239290  0.13249107     0.61600
H1204       H  0.67157250  0.11392966  0.07406802     0.12200
H1205       H  0.55864868  0.19227755  0.15266959     0.12300
C1206       C  0.52886550  0.20629689  0.09206333     0.61800
F1207       F  0.73117598  0.08659997  0.11739985    -0.23400
F1208       F  0.67091912  0.02302581  0.11952696    -0.20700
F1209       F  0.69799051  0.06540025  0.16528627    -0.20400
F1210       F  0.50561718  0.17663772  0.06729735    -0.20400
F1211       F  0.54102830  0.25785136  0.08126341    -0.20800
F1212       F  0.49633769  0.20967622  0.11779253    -0.23400
C1213       C  0.58130216  0.38213207  0.09148778    -0.06300
C1214       C  0.61827860  0.34777537  0.08228119    -0.00300
C1215       C  0.64822543  0.32772256  0.10762553    -0.08900
C1216       C  0.63509827  0.33398642  0.14029741    -0.06300
C1217       C  0.60243832  0.37227866  0.15023493    -0.00400
C1218       C  0.57334820  0.39628525  0.12488273    -0.08800
C1219       C  0.53548276  0.43858824  0.13091261     0.61600
H1220       H  0.55906204  0.39879405  0.07224227     0.12200
H1221       H  0.65154380  0.30831540  0.15811911     0.12300
C1222       C  0.69373937  0.29819072  0.10109494     0.61800
F1223       F  0.74569746  0.42768106  0.11005743    -0.23400
F1224       F  0.55644968  0.48970057  0.12548119    -0.20700
F1225       F  0.51625603  0.43612582  0.16212690    -0.20400
F1226       F  0.72349439  0.32835771  0.08025154    -0.20400
F1227       F  0.68057179  0.24955998  0.08710866    -0.20800
F1228       F  0.48562897  0.31575497  0.11984124    -0.23400
C1229       C  0.59448238  0.13577909  0.90548826    -0.06300
C1230       C  0.63382394  0.16554783  0.91948592    -0.00300
C1231       C  0.67638952  0.17531142  0.90020966    -0.08900
C1232       C  0.67535286  0.16127531  0.86665137    -0.06300
C1233       C  0.63518437  0.13384194  0.85160809    -0.00400
C1234       C  0.59449281  0.11731529  0.87250796    -0.08800
C1235       C  0.55070803  0.08017725  0.86176607     0.61600
H1236       H  0.56347914  0.12665907  0.92110144     0.12200
H1237       H  0.70728291  0.17079075  0.85233723     0.12300
C1238       C  0.72354974  0.20007190  0.91454291     0.61800
F1239       F  0.51738716  0.07181459  0.88690544    -0.23400
F1240       F  0.56579451  0.02965435  0.85283905    -0.20700
F1241       F  0.52519855  0.10194437  0.83613932    -0.20400
F1242       F  0.73860122  0.16904653  0.94069363    -0.20400
F1243       F  0.71732363  0.25287338  0.92451590    -0.20800
F1244       F  0.76058219  0.20137800  0.89198186    -0.23400
C1245       C  0.67175260  0.38192752  0.87064156    -0.06300
C1246       C  0.63660250  0.35746245  0.84891929    -0.00300
C1247       C  0.60287186  0.31825286  0.86205194    -0.08900
C1248       C  0.59872276  0.31401347  0.89638390    -0.06300
C1249       C  0.63149586  0.34138713  0.91814359    -0.00400
C1250       C  0.66946124  0.37521175  0.90502212    -0.08800
C1251       C  0.70575127  0.40631839  0.92708581     0.61600
H1252       H  0.70032035  0.40839356  0.86039329     0.12200
H1253       H  0.57199820  0.28486961  0.90629636     0.12300
C1254       C  0.57600600  0.27453720  0.84177356     0.61800
F1255       F  0.73357607  0.44459971  0.90969045    -0.23400
F1256       F  0.73711797  0.37100841  0.94157538    -0.20700
F1257       F  0.68105564  0.43329183  0.95127414    -0.20400
F1258       F  0.59496053  0.26864134  0.81064305    -0.20400
F1259       F  0.52685162  0.28453403  0.84003067    -0.20800
F1260       F  0.58099359  0.22548118  0.85681731    -0.23400
O1261       O  0.59062629  0.69027634  0.96238427    -0.74900
O1262       O  0.57956085  0.79706305  0.03124338    -0.74900
O1263       O  0.58735580  0.79759008  0.96331011    -0.75000
O1264       O  0.58113393  0.68914611  0.03022501    -0.75100
O1265       O  0.66121885  0.69796149  0.03707937    -0.75000
O1266       O  0.66847341  0.79946233  0.96567727    -0.75000
O1267       O  0.66012012  0.80625052  0.03181921    -0.74900
O1268       O  0.67068807  0.69223753  0.97039217    -0.75000
Ni1269     Ni  0.58158687  0.74324715  0.99659327     1.25400
Ni1270     Ni  0.66791103  0.74914546  0.00148425     1.25400
C1271       C  0.63343108  0.67764804  0.95326423     0.87300
C1272       C  0.61928144  0.81560050  0.04479231     0.87200
C1273       C  0.62897799  0.81186219  0.95129309     0.87200
C1274       C  0.61925508  0.68072240  0.04731415     0.87400
C1275       C  0.61489682  0.62575231  0.18803274     0.86000
C1276       C  0.57438639  0.64802328  0.20956719    -0.54200
C1277       C  0.57222711  0.62733817  0.24086815     0.08900
C1278       C  0.61315317  0.58465023  0.24752662     0.19900
C1279       C  0.66040288  0.63986253  0.20829773    -0.55000
C1280       C  0.66063900  0.61981990  0.23961109     0.09000
C1281       C  0.60474254  0.56538263  0.18987300    -0.54500
C1282       C  0.60813001  0.53988198  0.21950945     0.09600
H1283       H  0.55190930  0.68049549  0.20185933     0.14100
H1284       H  0.61275082  0.56651415  0.27234757    -0.00100
H1285       H  0.68633136  0.67045748  0.19945878     0.14400
H1286       H  0.59276439  0.54560092  0.16751029     0.14200
C1287       C  0.60942933  0.88498238  0.18266917     0.86000
C1288       C  0.65030052  0.86379224  0.20465086    -0.54200
C1289       C  0.65267463  0.88523780  0.23555005     0.08900
C1290       C  0.61122821  0.92655758  0.24185334     0.19900
C1291       C  0.56360906  0.86977352  0.20272050    -0.55000
C1292       C  0.56431482  0.89001668  0.23407047     0.09000
C1293       C  0.61759284  0.94600486  0.18440063    -0.54500
C1294       C  0.61408296  0.97081870  0.21434375     0.09600
H1295       H  0.67210191  0.83029581  0.19764665     0.14100
H1296       H  0.61298923  0.94646362  0.26607603    -0.00100
H1297       H  0.53643373  0.83978326  0.19428590     0.14400
H1298       H  0.62686701  0.96693248  0.16188003     0.14200
C1299       C  0.74796345  0.63890828  0.31509576     0.86000
C1300       C  0.70105970  0.62152488  0.29582322    -0.54200
C1301       C  0.69988678  0.63837500  0.26383527     0.08900
C1302       C  0.74504848  0.67577174  0.25490747     0.19900
C1303       C  0.53538003  0.63099506  0.29728223    -0.55000
C1304       C  0.53626646  0.64869292  0.26553230     0.09000
C1305       C  0.75418190  0.69975437  0.31169310    -0.54500
C1306       C  0.74648375  0.72181950  0.28148513     0.09600
H1307       H  0.67244970  0.59581784  0.30673790     0.14100
H1308       H  0.74488884  0.69322829  0.23009334    -0.00100
H1309       H  0.56300811  0.60541140  0.30701652     0.14400
H1310       H  0.77290466  0.72352747  0.33074461     0.14200
C1311       C  0.48929044  0.87740358  0.31341132     0.86000
C1312       C  0.53148127  0.89210957  0.29063544    -0.54200
C1313       C  0.52744067  0.87229574  0.25946826     0.08900
C1314       C  0.48144469  0.83288299  0.25479703     0.19900
C1315       C  0.68823043  0.88297193  0.29247987    -0.55000
C1316       C  0.68794675  0.86416939  0.26074383     0.09000
C1317       C  0.49097445  0.81619717  0.31279243    -0.54500
C1318       C  0.48448744  0.78959124  0.28335374     0.09600
H1319       H  0.56466202  0.91072499  0.29930925     0.14100
H1320       H  0.47922845  0.81285315  0.23055429    -0.00100
H1321       H  0.66139472  0.90971644  0.30176804     0.14400
H1322       H  0.50396270  0.79724228  0.33490900     0.14200
O1323       O  0.54244937  0.55615485  0.46356395    -0.74900
O1324       O  0.53844961  0.95236242  0.53423922    -0.74900
O1325       O  0.53384674  0.95121714  0.46637904    -0.75000
O1326       O  0.54944509  0.55846085  0.53072585    -0.75100
O1327       O  0.71056156  0.56045341  0.53501512    -0.75000
O1328       O  0.69331387  0.93927806  0.46590693    -0.75000
O1329       O  0.70009580  0.93995135  0.53367604    -0.74900
O1330       O  0.70524522  0.55746099  0.46688086    -0.75000
Ni1331     Ni  0.53720568  0.00547090  0.49981433     1.25400
Ni1332     Ni  0.69760088  0.99377663  0.49970314     1.25400
C1333       C  0.50231806  0.57498623  0.45339661     0.87300
C1334       C  0.74075316  0.92530054  0.54575675     0.87200
C1335       C  0.73152982  0.92184852  0.45229207     0.87200
C1336       C  0.51178833  0.57415681  0.54580852     0.87400
C1337       C  0.64315826  0.61446446  0.81485602     0.86000
C1338       C  0.68456732  0.63849737  0.79290232    -0.54200
C1339       C  0.68477556  0.61779964  0.76137588     0.08900
C1340       C  0.64174420  0.57417386  0.75534759     0.19900
C1341       C  0.59750935  0.62732385  0.79520276    -0.55000
C1342       C  0.59643566  0.60903431  0.76373166     0.09000
C1343       C  0.65101454  0.55469320  0.81272537    -0.54500
C1344       C  0.64621665  0.52945996  0.78300441     0.09600
H1345       H  0.70944968  0.67113511  0.80070155     0.14100
H1346       H  0.64140228  0.55514307  0.73078432    -0.00100
H1347       H  0.57236762  0.65652015  0.80394523     0.14400
H1348       H  0.66444645  0.53575790  0.83470545     0.14200
C1349       C  0.63448918  0.87990910  0.81430483     0.86000
C1350       C  0.58865279  0.86838275  0.79358305    -0.54200
C1351       C  0.59105055  0.88677281  0.76209684     0.08900
C1352       C  0.63830085  0.92306189  0.75567661     0.19900
C1353       C  0.67738028  0.86146269  0.79407252    -0.55000
C1354       C  0.67942268  0.88149107  0.76303448     0.09000
C1355       C  0.63732149  0.94134281  0.81397059    -0.54500
C1356       C  0.64014200  0.96732595  0.78409628     0.09600
H1357       H  0.55591517  0.84988501  0.80357554     0.14100
H1358       H  0.63962071  0.94206628  0.73111156    -0.00100
H1359       H  0.70192280  0.83158371  0.80319659     0.14400
H1360       H  0.63080894  0.96082308  0.83709734     0.14200
C1361       C  0.52239052  0.63106217  0.68504270     0.86000
C1362       C  0.56399849  0.61516703  0.70719980    -0.54200
C1363       C  0.56185746  0.63220231  0.73875210     0.08900
C1364       C  0.51879531  0.67206865  0.74445565     0.19900
C1365       C  0.72081190  0.62044021  0.70391039    -0.55000
C1366       C  0.72113909  0.63881904  0.73589926     0.09000
C1367       C  0.52868326  0.69232173  0.68689423    -0.54500
C1368       C  0.77247671  0.71876299  0.71644041     0.09600
H1369       H  0.59548045  0.59648484  0.69856149     0.14100
H1370       H  0.51905531  0.69073093  0.76907099    -0.00100
H1371       H  0.69152039  0.59472656  0.69371899     0.14400
H1372       H  0.54123745  0.71396022  0.66520251     0.14200
C1373       C  0.75360951  0.86658315  0.68495564     0.86000
C1374       C  0.70934278  0.87488432  0.70630964    -0.54200
C1375       C  0.71342005  0.85875876  0.73788628     0.08900
C1376       C  0.76041215  0.82525330  0.74407439     0.19900
C1377       C  0.55117350  0.88724816  0.70613210    -0.55000
C1378       C  0.55391805  0.86652867  0.73715407     0.09000
C1379       C  0.75598160  0.80514211  0.68600459    -0.54500
C1380       C  0.76294543  0.78094081  0.71595744     0.09600
H1381       H  0.67576721  0.88965147  0.69704951     0.14100
H1382       H  0.76181988  0.80618646  0.76854376    -0.00100
H1383       H  0.57616054  0.91888565  0.69708089     0.14400
H1384       H  0.74885422  0.78295282  0.66343555     0.14200
C1385       C  0.70972082  0.92569543  0.60181197    -0.06300
C1386       C  0.74166735  0.90272841  0.57961089    -0.00300
C1387       C  0.53697436  0.87685116  0.59327819    -0.08900
C1388       C  0.53888087  0.86445533  0.62712177    -0.06300
C1389       C  0.75115633  0.88697106  0.64894199    -0.00400
C1390       C  0.71635455  0.92293240  0.63597348    -0.08800
C1391       C  0.68968910  0.96532828  0.65520361     0.61600
H1392       H  0.68227678  0.95198192  0.59232735     0.12200
H1393       H  0.56523428  0.83635223  0.63584289     0.12300
C1394       C  0.57188635  0.85107159  0.56975915     0.61800
F1395       F  0.69155628  0.01382061  0.63813886    -0.23400
F1396       F  0.70998030  0.97651165  0.68570809    -0.20700
F1397       F  0.64123222  0.94856128  0.65824695    -0.20400
F1398       F  0.60522290  0.89008779  0.55821693    -0.20400
F1399       F  0.54620191  0.82786723  0.54355413    -0.20800
F1400       F  0.59756740  0.81081423  0.58485446    -0.23400
C1401       C  0.54572624  0.56308031  0.59995625    -0.06300
C1402       C  0.51821943  0.59504013  0.57939000    -0.00300
C1403       C  0.72293455  0.62727648  0.59508404    -0.08900
C1404       C  0.72663210  0.63337412  0.62952839    -0.06300
C1405       C  0.52116838  0.61291556  0.64850109    -0.00400
C1406       C  0.54699789  0.56965470  0.63412203    -0.08800
C1407       C  0.57634220  0.52899219  0.65249107     0.61600
H1408       H  0.56543653  0.53067568  0.58881076     0.12200
H1409       H  0.69706684  0.65178812  0.64236912     0.12300
C1410       C  0.68001413  0.65110059  0.57756663     0.61800
F1411       F  0.55576755  0.51520751  0.68235651    -0.23400
F1412       F  0.62303201  0.55114388  0.65620998    -0.20700
F1413       F  0.57942975  0.48097992  0.63504684    -0.20400
F1414       F  0.63999907  0.61534757  0.57960732    -0.20400
F1415       F  0.69016538  0.66185110  0.54487209    -0.20800
F1416       F  0.66881615  0.69982949  0.59211600    -0.23400
C1417       C  0.68826341  0.87881189  0.36680493    -0.06300
C1418       C  0.49070753  0.89793689  0.34955456    -0.00300
C1419       C  0.52088944  0.94173645  0.36287584    -0.08900
C1420       C  0.52125821  0.94982918  0.39710057    -0.07300
C1421       C  0.49261777  0.91796153  0.41869266    -0.00400
C1422       C  0.68507804  0.88557026  0.40110905    -0.08800
C1423       C  0.63517070  0.88376533  0.41691079     0.61600
H1424       H  0.65486855  0.87353381  0.35275992     0.12200
H1425       H  0.54360472  0.98303807  0.40745325     0.12300
C1426       C  0.55184393  0.98254233  0.34305470     0.61800
F1427       F  0.60018200  0.85867964  0.39664314    -0.23400
F1428       F  0.62176304  0.93609340  0.42321767    -0.20700
F1429       F  0.63595598  0.85453803  0.44592093    -0.20400
F1430       F  0.53007000  0.99385248  0.31331516    -0.20400
F1431       F  0.59786365  0.96343325  0.33857653    -0.20800
F1432       F  0.55834767  0.03131991  0.35955376    -0.23400
C1433       C  0.73878142  0.65760138  0.37704122    -0.06300
C1434       C  0.74665231  0.61974932  0.35114137    -0.00300
C1435       C  0.44710974  0.62350659  0.37392929    -0.08900
C1436       C  0.45353546  0.60824341  0.40689577    -0.06300
C1437       C  0.74601962  0.58853559  0.41848135    -0.00400
C1438       C  0.73948968  0.64296996  0.41050437    -0.08800
C1439       C  0.73423229  0.68504550  0.43737681     0.61600
H1440       H  0.73017512  0.69883457  0.37155451     0.12200
H1441       H  0.42142650  0.59734958  0.42121566     0.12300
C1442       C  0.39444357  0.62859053  0.36250514     0.61800
F1443       F  0.72890928  0.73659466  0.42472178    -0.23400
F1444       F  0.77531380  0.68644399  0.45726574    -0.20700
F1445       F  0.69383302  0.67151131  0.45629986    -0.20400
F1446       F  0.37540770  0.57837970  0.35238758    -0.20400
F1447       F  0.38997164  0.66592134  0.33757196    -0.20800
F1448       F  0.36602470  0.64610234  0.38814311    -0.23400
C1449       C  0.65483554  0.63435359  0.09584710    -0.06300
C1450       C  0.61473892  0.65805556  0.08139517    -0.00300
C1451       C  0.57421443  0.66745412  0.10153096    -0.08900
C1452       C  0.57848346  0.66227529  0.13580619    -0.06300
C1453       C  0.61928646  0.64100823  0.15112358    -0.00400
C1454       C  0.65763000  0.62325601  0.12995470    -0.08800
C1455       C  0.70168092  0.59226620  0.14177113     0.61600
H1456       H  0.68386528  0.62365924  0.07969406     0.12200
H1457       H  0.54791370  0.67238662  0.15052782     0.12300
C1458       C  0.52554697  0.68122163  0.08735161     0.61800
F1459       F  0.73048078  0.57668031  0.11586431    -0.23400
F1460       F  0.68735095  0.54538550  0.15809117    -0.20700
F1461       F  0.73110700  0.62412913  0.16215179    -0.20400
F1462       F  0.51135354  0.64387453  0.06334778    -0.20400
F1463       F  0.52839154  0.73280555  0.07428497    -0.20800
F1464       F  0.49030029  0.67917131  0.11125457    -0.23400
C1465       C  0.57680728  0.86477264  0.08947396    -0.06300
C1466       C  0.61914460  0.84137765  0.07809260    -0.00300
C1467       C  0.65888680  0.83689255  0.10034072    -0.08900
C1468       C  0.65318339  0.85184008  0.13310036    -0.06300
C1469       C  0.60887045  0.86805439  0.14605908    -0.00400
C1470       C  0.57080422  0.87949442  0.12290361    -0.08800
C1471       C  0.52419573  0.90776359  0.13201473     0.61600
H1472       H  0.54808802  0.87088501  0.07174756     0.12200
H1473       H  0.68506464  0.85248321  0.14852139     0.12300
C1474       C  0.70690085  0.81322410  0.09083711     0.61800
F1475       F  0.74957817  0.92524769  0.10439019    -0.23400
F1476       F  0.53436547  0.95474772  0.14965580    -0.20700
F1477       F  0.49382070  0.87366462  0.15018810    -0.20400
F1478       F  0.72878413  0.84315573  0.06580705    -0.20400
F1479       F  0.69778425  0.76059908  0.08076342    -0.20800
F1480       F  0.46563649  0.77241189  0.13352812    -0.23400
C1481       C  0.60109329  0.62327595  0.90606091    -0.06300
C1482       C  0.64037492  0.65271797  0.92035173    -0.00300
C1483       C  0.68227409  0.66514764  0.90095173    -0.08900
C1484       C  0.67994503  0.65528849  0.86699479    -0.06300
C1485       C  0.63970015  0.62837770  0.85175476    -0.00400
C1486       C  0.60014694  0.60852227  0.87253425    -0.08800
C1487       C  0.55560015  0.57358109  0.86075951     0.61600
H1488       H  0.57036535  0.61260457  0.92164122     0.12200
H1489       H  0.71077850  0.66814470  0.85246103     0.12300
C1490       C  0.72992182  0.68846646  0.91543484     0.61800
F1491       F  0.52655346  0.55603771  0.88673711    -0.23400
F1492       F  0.56923937  0.52743250  0.84473249    -0.20700
F1493       F  0.52643329  0.60270007  0.84029048    -0.20400
F1494       F  0.74451560  0.65608860  0.94109447    -0.20400
F1495       F  0.72462474  0.74097263  0.92626240    -0.20800
F1496       F  0.76690064  0.68999966  0.89267085    -0.23400
C1497       C  0.66739999  0.88380552  0.87230986    -0.06300
C1498       C  0.63530509  0.85737153  0.84940081    -0.00300
C1499       C  0.60533595  0.81284818  0.86054423    -0.08900
C1500       C  0.60114614  0.80445002  0.89449253    -0.06300
C1501       C  0.63082014  0.83304540  0.91738830    -0.00400
C1502       C  0.66565159  0.87253169  0.90616996    -0.08800
C1503       C  0.69963186  0.90381596  0.92969804     0.61600
H1504       H  0.69369971  0.91432933  0.86342755     0.12200
H1505       H  0.57738034  0.77142050  0.90321274     0.12300
C1506       C  0.58331820  0.76834621  0.83839699     0.61800
F1507       F  0.72415691  0.94699862  0.91432597    -0.23400
F1508       F  0.73398716  0.86989035  0.94211477    -0.20700
F1509       F  0.67310557  0.92443545  0.95531512    -0.20400
F1510       F  0.60620990  0.76591624  0.80825818    -0.20400
F1511       F  0.53383460  0.77443497  0.83428042    -0.20800
F1512       F  0.58911300  0.71901987  0.85301814    -0.23400
O1513       O  0.83524255  0.20389579  0.96096821    -0.74900
O1514       O  0.82544584  0.30722844  0.03247747    -0.74900
O1515       O  0.83201024  0.31117284  0.96405372    -0.75000
O1516       O  0.82698569  0.19905798  0.02868255    -0.75100
O1517       O  0.90720610  0.20702901  0.03519051    -0.75000
O1518       O  0.91304017  0.31338636  0.96647064    -0.75000
O1519       O  0.90598209  0.31569455  0.03331140    -0.74900
O1520       O  0.91536661  0.20603003  0.96855187    -0.75000
Ni1521     Ni  0.82684055  0.25523813  0.99641718     1.25400
Ni1522     Ni  0.91315685  0.26086426  0.00109259     1.25400
C1523       C  0.87796084  0.19134077  0.95157093     0.87300
C1524       C  0.86522265  0.32415715  0.04675382     0.87200
C1525       C  0.87354866  0.32496566  0.95175555     0.87200
C1526       C  0.86536851  0.18884047  0.04503209     0.87400
C1527       C  0.86354577  0.12206122  0.18336176     0.86000
C1528       C  0.82290156  0.14377375  0.20536096    -0.54200
C1529       C  0.82052487  0.12171705  0.23614905     0.08900
C1530       C  0.86154266  0.07958591  0.24222928     0.19900
C1531       C  0.90977683  0.13563187  0.20359245    -0.55000
C1532       C  0.90913916  0.11481492  0.23471841     0.09000
C1533       C  0.85366242  0.06142833  0.18455964    -0.54500
C1534       C  0.85710821  0.03588315  0.21415002     0.09600
H1535       H  0.80031980  0.17673268  0.19870636     0.14100
H1536       H  0.86027963  0.06025062  0.26660775    -0.00100
H1537       H  0.93926689  0.16168362  0.19406890     0.14400
H1538       H  0.84337227  0.04138058  0.16190975     0.14200
C1539       C  0.85612121  0.38157971  0.18752450     0.86000
C1540       C  0.89631641  0.35976042  0.20990834    -0.54200
C1541       C  0.89884011  0.38182270  0.24083143     0.08900
C1542       C  0.85803140  0.42432748  0.24668847     0.19900
C1543       C  0.81011987  0.36834520  0.20745587    -0.55000
C1544       C  0.81065437  0.38859758  0.23892786     0.09000
C1545       C  0.86601225  0.44187632  0.18884605    -0.54500
C1546       C  0.86274016  0.46790179  0.21825761     0.09600
H1547       H  0.91779691  0.32595160  0.20312138     0.14100
H1548       H  0.85884141  0.44351549  0.27125079    -0.00100
H1549       H  0.78330233  0.33848462  0.19854520     0.14400
H1550       H  0.87669496  0.46136807  0.16617168     0.14200
C1551       C  0.98378932  0.13262189  0.31473540     0.86000
C1552       C  0.94621001  0.10846481  0.29051598    -0.54200
C1553       C  0.94621701  0.13248653  0.26028618     0.08900
C1554       C  0.98864626  0.17701347  0.25625769     0.19900
C1555       C  0.78491681  0.12168414  0.29287447    -0.55000
C1556       C  0.78442244  0.14093999  0.26131815     0.09000
C1557       C  0.97647112  0.19286847  0.31393887    -0.54500
C1558       C  0.98237734  0.21942180  0.28473523     0.09600
H1559       H  0.92507050  0.07190741  0.29553227     0.14100
H1560       H  0.98948307  0.19720327  0.23210253    -0.00100
H1561       H  0.81208700  0.09528646  0.30220583     0.14400
H1562       H  0.96459408  0.21197529  0.33632695     0.14200
C1563       C  0.72923107  0.36698364  0.31658299     0.86000
C1564       C  0.77389803  0.38660399  0.29598709    -0.54200
C1565       C  0.77356482  0.36875492  0.26404731     0.08900
C1566       C  0.72844899  0.33020444  0.25627039     0.19900
C1567       C  0.93588614  0.38027887  0.29755816    -0.55000
C1568       C  0.93505199  0.36190665  0.26592226     0.09000
C1569       C  0.72411852  0.30643763  0.31344488    -0.54500
C1570       C  0.72920149  0.28409429  0.28312004     0.09600
H1571       H  0.80234721  0.41368464  0.30574879     0.14100
H1572       H  0.72765243  0.31231615  0.23148895    -0.00100
H1573       H  0.90831124  0.40562431  0.30748646     0.14400
H1574       H  0.71666856  0.28298256  0.33554493     0.14200
O1575       O  0.78173133  0.04132480  0.46117590    -0.74900
O1576       O  0.78207482  0.44784692  0.53379933    -0.74900
O1577       O  0.77529900  0.44381039  0.46633450    -0.75000
O1578       O  0.78844729  0.04626456  0.52913357    -0.75100
O1579       O  0.95957533  0.04507544  0.53518784    -0.75000
O1580       O  0.95287554  0.45478901  0.46817366    -0.75000
O1581       O  0.95963588  0.45660787  0.53602819    -0.74900
O1582       O  0.95406709  0.04629184  0.46733168    -0.75000
Ni1583     Ni  0.78644660  0.49941120  0.49877537     1.25400
Ni1584     Ni  0.95646074  0.50961587  0.50171509     1.25400
C1585       C  0.74118871  0.05742315  0.44997232     0.87300
C1586       C  0.00053218  0.44235445  0.54787776     0.87200
C1587       C  0.99146690  0.43952287  0.45399093     0.87200
C1588       C  0.75055622  0.06140835  0.54433557     0.87400
C1589       C  0.88993219  0.11615872  0.81467982     0.86000
C1590       C  0.93212039  0.13886000  0.79277426    -0.54200
C1591       C  0.93275438  0.11730818  0.76156624     0.08900
C1592       C  0.88927300  0.07429979  0.75548527     0.19900
C1593       C  0.84480967  0.12903794  0.79441921    -0.55000
C1594       C  0.84410021  0.10989741  0.76303728     0.09000
C1595       C  0.89673502  0.05594855  0.81323628    -0.54500
C1596       C  0.89287171  0.03010980  0.78355406     0.09600
H1597       H  0.95748170  0.17127410  0.80014591     0.14100
H1598       H  0.88891699  0.05479021  0.73107546    -0.00100
H1599       H  0.81918716  0.15784057  0.80307335     0.14400
H1600       H  0.90850935  0.03726348  0.83570982     0.14200
C1601       C  0.88308612  0.37766972  0.81233136     0.86000
C1602       C  0.83724615  0.36685056  0.79152602    -0.54200
C1603       C  0.84021309  0.38451904  0.75991647     0.08900
C1604       C  0.88842115  0.41962228  0.75337620     0.19900
C1605       C  0.92578653  0.35759597  0.79235285    -0.55000
C1606       C  0.92875008  0.37731364  0.76119419     0.09000
C1607       C  0.88717933  0.43904110  0.81141866    -0.54500
C1608       C  0.89154162  0.46450277  0.78148876     0.09600
H1609       H  0.80404147  0.34924683  0.80149137     0.14100
H1610       H  0.89021319  0.43806222  0.72867683    -0.00100
H1611       H  0.94994865  0.32764351  0.80187559     0.14400
H1612       H  0.88051895  0.45936312  0.83429185     0.14200
C1613       C  0.76750636  0.12747876  0.68416649     0.86000
C1614       C  0.81029171  0.11303355  0.70617995    -0.54200
C1615       C  0.80906616  0.13157728  0.73760954     0.08900
C1616       C  0.76577297  0.17095983  0.74329183     0.19900
C1617       C  0.96950142  0.11717487  0.70474004    -0.55000
C1618       C  0.96988919  0.13700903  0.73624573     0.09000
C1619       C  0.77272799  0.18896933  0.68514559    -0.54500
C1620       C  0.02127015  0.21671072  0.71556325     0.09600
H1621       H  0.84118722  0.09290193  0.69774411     0.14100
H1622       H  0.76625754  0.19056472  0.76765980    -0.00100
H1623       H  0.94054827  0.09024515  0.69520652     0.14400
H1624       H  0.78357880  0.20969685  0.66280182     0.14200
C1625       C  0.00717724  0.36633963  0.68462826     0.86000
C1626       C  0.96134348  0.37207697  0.70500623    -0.54200
C1627       C  0.96422040  0.35554037  0.73657480     0.08900
C1628       C  0.01166701  0.32336513  0.74340487     0.19900
C1629       C  0.79974731  0.38526373  0.70408459    -0.55000
C1630       C  0.80239972  0.36469094  0.73514539     0.09000
C1631       C  0.01124675  0.30507939  0.68491516    -0.54500
C1632       C  0.01559894  0.27971130  0.71493602     0.09600
H1633       H  0.92798184  0.38615482  0.69504889     0.14100
H1634       H  0.01257359  0.30415548  0.76789188    -0.00100
H1635       H  0.82533471  0.41617665  0.69475695     0.14400
H1636       H  0.00619950  0.28437588  0.66173847     0.14200
C1637       C  0.97104485  0.44135315  0.60462571    -0.06300
C1638       C  0.00157255  0.41844869  0.58141830    -0.00300
C1639       C  0.77533138  0.37140549  0.59047384    -0.08900
C1640       C  0.78184536  0.36105008  0.62417054    -0.06300
C1641       C  0.00639703  0.39007315  0.64941283    -0.00400
C1642       C  0.97537115  0.43149200  0.63850179    -0.08800
C1643       C  0.94982419  0.47086335  0.66062720     0.61600
H1644       H  0.94614147  0.47156791  0.59640621     0.12200
H1645       H  0.80753170  0.33103157  0.63133539     0.12300
C1646       C  0.80346939  0.33813438  0.56624981     0.61800
F1647       F  0.95268113  0.52203977  0.64699593    -0.23400
F1648       F  0.97062900  0.47589923  0.69155599    -0.20700
F1649       F  0.90111463  0.45481686  0.66290863    -0.20400
F1650       F  0.85173562  0.35679442  0.56613265    -0.20400
F1651       F  0.78481911  0.34043827  0.53465939    -0.20800
F1652       F  0.80123982  0.28409113  0.57567155    -0.23400
C1653       C  0.78547943  0.05325585  0.59929742    -0.06300
C1654       C  0.75694783  0.08354141  0.57827145    -0.00300
C1655       C  0.96330414  0.10659364  0.59810767    -0.08900
C1656       C  0.97029828  0.12056663  0.63152169    -0.06300
C1657       C  0.76475924  0.10748941  0.64748737    -0.00400
C1658       C  0.78944142  0.06307495  0.63338864    -0.08800
C1659       C  0.81937165  0.02367663  0.65237883     0.61600
H1660       H  0.80396936  0.01960596  0.58859147     0.12200
H1661       H  0.93972970  0.13473252  0.64522055     0.12300
C1662       C  0.91208960  0.10661800  0.58382149     0.61800
F1663       F  0.79924831  0.01163672  0.68263462    -0.23400
F1664       F  0.86625043  0.04554090  0.65560786    -0.20700
F1665       F  0.82203073  0.97495130  0.63578114    -0.20400
F1666       F  0.89468892  0.05366249  0.57887466    -0.20400
F1667       F  0.91235859  0.13453732  0.55436384    -0.20800
F1668       F  0.88006673  0.13133998  0.60465801    -0.23400
C1669       C  0.96137707  0.35373493  0.37811288    -0.06300
C1670       C  0.73095446  0.37920605  0.35379670    -0.00300
C1671       C  0.77294973  0.37258796  0.37426138    -0.08900
C1672       C  0.77054594  0.38736801  0.40758800    -0.07300
C1673       C  0.72753084  0.40396972  0.42229690    -0.00400
C1674       C  0.96370431  0.36831302  0.41166508    -0.08800
C1675       C  0.94021746  0.33186854  0.43766382     0.61600
H1676       H  0.94301866  0.31552997  0.37142271     0.12200
H1677       H  0.80366377  0.38731551  0.42221956     0.12300
C1678       C  0.82200104  0.35252771  0.36314575     0.61800
F1679       F  0.92323641  0.28253370  0.42469907    -0.23400
F1680       F  0.90120355  0.35735329  0.45126893    -0.20700
F1681       F  0.97369917  0.32164628  0.46216954    -0.20400
F1682       F  0.85351279  0.39683006  0.35754668    -0.20400
F1683       F  0.81926746  0.32005969  0.33552414    -0.20800
F1684       F  0.84185247  0.32127504  0.38763409    -0.23400
C1685       C  0.02296332  0.13301137  0.37056167    -0.06300
C1686       C  0.98195124  0.11567942  0.35140125    -0.00300
C1687       C  0.74285897  0.05955165  0.35722977    -0.08900
C1688       C  0.74412273  0.04348198  0.39041465    -0.06300
C1689       C  0.98911872  0.09020943  0.41982653    -0.00400
C1690       C  0.02799167  0.11959763  0.40405589    -0.08800
C1691       C  0.07575075  0.13467311  0.42141569     0.61600
H1692       H  0.05286871  0.15472772  0.35837681     0.12200
H1693       H  0.74759472  0.00091312  0.39617938     0.12300
C1694       C  0.74254406  0.01320199  0.33283287     0.61800
F1695       F  0.10376990  0.17238133  0.40369709    -0.23400
F1696       F  0.10246827  0.08877621  0.42517224    -0.20700
F1697       F  0.06682818  0.15718736  0.45185841    -0.20400
F1698       F  0.78355405  0.98430779  0.33858012    -0.20400
F1699       F  0.74166511  0.02624164  0.30000957    -0.20800
F1700       F  0.70111989  0.98127977  0.33861402    -0.23400
C1701       C  0.90008313  0.13457039  0.09076296    -0.06300
C1702       C  0.86111212  0.16278531  0.07806983    -0.00300
C1703       C  0.82170687  0.17241649  0.09915867    -0.08900
C1704       C  0.82671751  0.16327475  0.13293176    -0.06300
C1705       C  0.86680242  0.13826685  0.14673776    -0.00400
C1706       C  0.90270860  0.11911252  0.12418612    -0.08800
C1707       C  0.94200210  0.07865567  0.13167936     0.61600
H1708       H  0.92790726  0.12238512  0.07389276     0.12200
H1709       H  0.79686902  0.17314429  0.14825634     0.12300
C1710       C  0.77367782  0.19188914  0.08675222     0.61800
F1711       F  0.98687728  0.09951645  0.12149445    -0.23400
F1712       F  0.93123914  0.03144533  0.11410788    -0.20700
F1713       F  0.94690356  0.06448356  0.16414131    -0.20400
F1714       F  0.75577411  0.15851857  0.06167274    -0.20400
F1715       F  0.77993294  0.24449417  0.07575118    -0.20800
F1716       F  0.73928298  0.19063442  0.11136498    -0.23400
C1717       C  0.82379902  0.37066539  0.09347830    -0.06300
C1718       C  0.86514110  0.34636104  0.08129475    -0.00300
C1719       C  0.90394187  0.33772739  0.10367852    -0.08900
C1720       C  0.89740593  0.34661143  0.13728502    -0.06300
C1721       C  0.85434825  0.36548304  0.15058092    -0.00400
C1722       C  0.81764301  0.38200106  0.12748453    -0.08800
C1723       C  0.77270781  0.41307120  0.13722110     0.61600
H1724       H  0.79672286  0.38173149  0.07565830     0.12200
H1725       H  0.92809111  0.34123829  0.15314848     0.12300
C1726       C  0.95231494  0.31709554  0.09296356     0.61800
F1727       F  0.99300625  0.42644916  0.11392729    -0.23400
F1728       F  0.78566326  0.46055859  0.15355919    -0.20700
F1729       F  0.74217199  0.38180995  0.15691766    -0.20400
F1730       F  0.97313559  0.35087806  0.06931921    -0.20400
F1731       F  0.94422221  0.26571413  0.08051325    -0.20800
F1732       F  0.72022766  0.28836015  0.12939465    -0.23400
C1733       C  0.84711402  0.13185050  0.90575749    -0.06300
C1734       C  0.88492935  0.16509617  0.91892205    -0.00300
C1735       C  0.92626762  0.17784552  0.89906799    -0.08900
C1736       C  0.92520998  0.16277871  0.86577923    -0.06300
C1737       C  0.88615418  0.13248256  0.85137837    -0.00400
C1738       C  0.84696376  0.11352268  0.87276229    -0.08800
C1739       C  0.80359341  0.07584068  0.86208711     0.61600
H1740       H  0.81686914  0.12111363  0.92174284     0.12200
H1741       H  0.95609183  0.17465379  0.85111087     0.12300
C1742       C  0.97182025  0.20790337  0.91224475     0.61800
F1743       F  0.77396023  0.06117394  0.88836156    -0.23400
F1744       F  0.81882642  0.02804799  0.84884828    -0.20700
F1745       F  0.77458955  0.10108763  0.83959694    -0.20400
F1746       F  0.99035201  0.18021767  0.93869105    -0.20400
F1747       F  0.96144383  0.26005183  0.92131160    -0.20800
F1748       F  0.00803686  0.21183370  0.88911487    -0.23400
C1749       C  0.91690254  0.38335260  0.86994771    -0.06300
C1750       C  0.88329303  0.35716040  0.84797253    -0.00300
C1751       C  0.84989878  0.31731130  0.86086003    -0.08900
C1752       C  0.84416278  0.31424751  0.89510217    -0.06300
C1753       C  0.87561249  0.34305410  0.91705158    -0.00400
C1754       C  0.91347874  0.37746238  0.90424196    -0.08800
C1755       C  0.94916050  0.40929906  0.92640092     0.61600
H1756       H  0.94531310  0.41025384  0.85988806     0.12200
H1757       H  0.81781664  0.28452824  0.90487142     0.12300
C1758       C  0.82565287  0.27164252  0.84066540     0.61800
F1759       F  0.97556267  0.44904849  0.90919442    -0.23400
F1760       F  0.98188533  0.37481683  0.94022726    -0.20700
F1761       F  0.92409773  0.43464995  0.95106239    -0.20400
F1762       F  0.84658562  0.26554037  0.81012796    -0.20400
F1763       F  0.77621936  0.27926078  0.83748963    -0.20800
F1764       F  0.83142426  0.22348711  0.85665904    -0.23400
O1765       O  0.84297585  0.69013050  0.96180167    -0.74900
O1766       O  0.83358517  0.79809812  0.03049870    -0.74900
O1767       O  0.84164544  0.79749602  0.96300123    -0.75000
O1768       O  0.83254716  0.68895578  0.02935664    -0.75100
O1769       O  0.91290691  0.69271343  0.03543912    -0.75000
O1770       O  0.92263142  0.79978322  0.96669746    -0.75000
O1771       O  0.91426977  0.80222121  0.03397304    -0.74900
O1772       O  0.92319809  0.69218117  0.96906507    -0.75000
Ni1773     Ni  0.83474678  0.74347497  0.99604503     1.25400
Ni1774     Ni  0.92106815  0.74699990  0.00158220     1.25400
C1775       C  0.88561896  0.67755259  0.95226975     0.87300
C1776       C  0.87296186  0.81430522  0.04549042     0.87200
C1777       C  0.88350149  0.81151335  0.95142976     0.87200
C1778       C  0.87044464  0.67693015  0.04561683     0.87400
C1779       C  0.86805139  0.61604862  0.18508691     0.86000
C1780       C  0.82686095  0.63756077  0.20657317    -0.54200
C1781       C  0.82489054  0.61716662  0.23773590     0.08900
C1782       C  0.86635762  0.57612612  0.24476431     0.19900
C1783       C  0.91368358  0.63107558  0.20529750    -0.55000
C1784       C  0.91313480  0.61243117  0.23691014     0.09000
C1785       C  0.85879517  0.55551960  0.18725145    -0.54500
C1786       C  0.86223244  0.53112031  0.21730132     0.09600
H1787       H  0.80322035  0.66900223  0.19937765     0.14100
H1788       H  0.86571163  0.55786984  0.26948397    -0.00100
H1789       H  0.94058296  0.66058628  0.19620723     0.14400
H1790       H  0.84743486  0.53485064  0.16490224     0.14200
C1791       C  0.85735422  0.88706070  0.18303855     0.86000
C1792       C  0.90076083  0.87067213  0.20469766    -0.54200
C1793       C  0.90125109  0.89005898  0.23615502     0.08900
C1794       C  0.85790975  0.92874711  0.24251876     0.19900
C1795       C  0.81243558  0.87017150  0.20342763    -0.55000
C1796       C  0.81263991  0.88971113  0.23505916     0.09000
C1797       C  0.86297780  0.94787116  0.18427872    -0.54500
C1798       C  0.85928900  0.97290407  0.21414909     0.09600
H1799       H  0.92985197  0.84690687  0.19605533     0.14100
H1800       H  0.85829329  0.94750066  0.26718872    -0.00100
H1801       H  0.78457007  0.84224709  0.19346840     0.14400
H1802       H  0.87378619  0.96834590  0.16188696     0.14200
C1803       C  0.98827124  0.64291766  0.31589215     0.86000
C1804       C  0.94834502  0.61672114  0.29400208    -0.54200
C1805       C  0.94817762  0.63589454  0.26234669     0.08900
C1806       C  0.99039409  0.68020536  0.25577931     0.19900
C1807       C  0.79050216  0.62123105  0.29434596    -0.55000
C1808       C  0.78928236  0.63799898  0.26239301     0.09000
C1809       C  0.98185854  0.70278379  0.31288513    -0.54500
C1810       C  0.98540335  0.72609694  0.28256765     0.09600
H1811       H  0.92413111  0.58417199  0.30264456     0.14100
H1812       H  0.99083838  0.69766632  0.23089858    -0.00100
H1813       H  0.81822408  0.59609808  0.30430564     0.14400
H1814       H  0.97134722  0.72398464  0.33487293     0.14200
C1815       C  0.73206495  0.86628679  0.31303238     0.86000
C1816       C  0.77607034  0.88719753  0.29215089    -0.54200
C1817       C  0.77641060  0.86849581  0.26041112     0.08900
C1818       C  0.73288017  0.82757553  0.25315169     0.19900
C1819       C  0.94127569  0.89077161  0.29235683    -0.55000
C1820       C  0.93825876  0.87047490  0.26104134     0.09000
C1821       C  0.72888824  0.80589132  0.31063291    -0.54500
C1822       C  0.73507899  0.78279947  0.28078554     0.09600
H1823       H  0.80342787  0.91594256  0.30144208     0.14100
H1824       H  0.73305160  0.80926199  0.22844435    -0.00100
H1825       H  0.91540495  0.91837874  0.30219017     0.14400
H1826       H  0.72124315  0.78285918  0.33289010     0.14200
O1827       O  0.78593887  0.55085847  0.46387309    -0.74900
O1828       O  0.78099825  0.93848869  0.53160533    -0.74900
O1829       O  0.77380017  0.93403649  0.46443901    -0.75000
O1830       O  0.79110049  0.55579167  0.53121408    -0.75100
O1831       O  0.96564242  0.56440377  0.53482813    -0.75000
O1832       O  0.95611996  0.93887968  0.46631737    -0.75000
O1833       O  0.96265472  0.93763126  0.53417504    -0.74900
O1834       O  0.95946639  0.56283038  0.46748635    -0.75000
Ni1835     Ni  0.78404108  0.99003528  0.49646231     1.25400
Ni1836     Ni  0.95520098  0.99163582  0.50087417     1.25400
C1837       C  0.74592206  0.56735089  0.45223823     0.87300
C1838       C  0.00464403  0.92827319  0.54642918     0.87200
C1839       C  0.99600632  0.92946772  0.45171843     0.87200
C1840       C  0.75346337  0.57326481  0.54576456     0.87400
C1841       C  0.89255195  0.61344698  0.81364031     0.86000
C1842       C  0.93420699  0.63656992  0.79173831    -0.54200
C1843       C  0.93453162  0.61600983  0.76027489     0.08900
C1844       C  0.89036528  0.57353629  0.75389482     0.19900
C1845       C  0.84707151  0.62719007  0.79408464    -0.55000
C1846       C  0.84514222  0.60856768  0.76265324     0.09000
C1847       C  0.89934380  0.55337390  0.81131704    -0.54500
C1848       C  0.89402663  0.52830582  0.78147539     0.09600
H1849       H  0.95985700  0.66816912  0.79968563     0.14100
H1850       H  0.88965077  0.55597143  0.72888750    -0.00100
H1851       H  0.82233723  0.65661154  0.80304682     0.14400
H1852       H  0.91228340  0.53386251  0.83327126     0.14200
C1853       C  0.88514652  0.87863039  0.81345218     0.86000
C1854       C  0.83878696  0.86846183  0.79279026    -0.54200
C1855       C  0.84097017  0.88708177  0.76118290     0.08900
C1856       C  0.88912984  0.92220023  0.75476581     0.19900
C1857       C  0.92724382  0.85922211  0.79289798    -0.55000
C1858       C  0.92977522  0.87973888  0.76197893     0.09000
C1859       C  0.88961298  0.94009774  0.81322859    -0.54500
C1860       C  0.89239668  0.96634054  0.78340908     0.09600
H1861       H  0.80596123  0.85042125  0.80300349     0.14100
H1862       H  0.89051191  0.94114158  0.73015383    -0.00100
H1863       H  0.95163082  0.82920818  0.80204041     0.14400
H1864       H  0.88499647  0.95966374  0.83656512     0.14200
C1865       C  0.76868265  0.63311960  0.68475807     0.86000
C1866       C  0.80642163  0.60932866  0.70744214    -0.54200
C1867       C  0.80945320  0.63122592  0.73806487     0.08900
C1868       C  0.76852083  0.67399266  0.74424335     0.19900
C1869       C  0.97518343  0.61606967  0.70418965    -0.55000
C1870       C  0.97317468  0.63552439  0.73571028     0.09000
C1871       C  0.77825098  0.69400526  0.68680306    -0.54500
C1872       C  0.02130855  0.71864630  0.71635825     0.09600
H1873       H  0.82168548  0.57093113  0.70281908     0.14100
H1874       H  0.76955960  0.69241761  0.76897059    -0.00100
H1875       H  0.94721185  0.58871830  0.69386276     0.14400
H1876       H  0.78876079  0.71550445  0.66458359     0.14200
C1877       C  0.00959618  0.86807154  0.68562250     0.86000
C1878       C  0.96392657  0.87615753  0.70602051    -0.54200
C1879       C  0.96576543  0.85874528  0.73743693     0.08900
C1880       C  0.01224136  0.82496240  0.74437222     0.19900
C1881       C  0.79867089  0.88865709  0.70496707    -0.55000
C1882       C  0.80216058  0.86849278  0.73632786     0.09000
C1883       C  0.01168613  0.80681149  0.68596649    -0.54500
C1884       C  0.01545321  0.78141268  0.71594908     0.09600
H1885       H  0.93099987  0.89127454  0.69650870     0.14100
H1886       H  0.01263362  0.80545766  0.76875115    -0.00100
H1887       H  0.82499603  0.91816731  0.69507973     0.14400
H1888       H  0.00640158  0.78617868  0.66271054     0.14200
C1889       C  0.97218023  0.92771035  0.60217215    -0.06300
C1890       C  0.00726160  0.90793300  0.58086625    -0.00300
C1891       C  0.77879173  0.87013776  0.59192594    -0.08900
C1892       C  0.78299494  0.86323738  0.62624993    -0.06300
C1893       C  0.01122578  0.88984018  0.65007360    -0.00400
C1894       C  0.97690918  0.92463262  0.63642073    -0.08800
C1895       C  0.95112167  0.96678532  0.65589338     0.61600
H1896       H  0.94372967  0.95214593  0.59218266     0.12200
H1897       H  0.81124477  0.83819018  0.63575978     0.12300
C1898       C  0.81207008  0.84020557  0.56909927     0.61800
F1899       F  0.95130490  0.01406909  0.63829668    -0.23400
F1900       F  0.97399030  0.97919199  0.68555092    -0.20700
F1901       F  0.90325337  0.94962213  0.66054927    -0.20400
F1902       F  0.84577204  0.87622147  0.55492806    -0.20400
F1903       F  0.78457847  0.81405173  0.54469798    -0.20800
F1904       F  0.83745208  0.80128367  0.58570958    -0.23400
C1905       C  0.80299755  0.59076758  0.59542956    -0.06300
C1906       C  0.76011453  0.60084043  0.57827603    -0.00300
C1907       C  0.98582816  0.63837370  0.59361259    -0.08900
C1908       C  0.98824482  0.64482669  0.62798709    -0.06300
C1909       C  0.76802520  0.61807155  0.64774544    -0.00400
C1910       C  0.80911545  0.60187189  0.62911945    -0.08800
C1911       C  0.85992391  0.59547732  0.64284483     0.61600
H1912       H  0.83192629  0.57171229  0.58236012     0.12200
H1913       H  0.96554316  0.67433413  0.63931263     0.12300
C1914       C  0.95464602  0.67485163  0.57295020     0.61800
F1915       F  0.86140952  0.54695704  0.65937325    -0.23400
F1916       F  0.87413055  0.63885788  0.66282541    -0.20700
F1917       F  0.89388437  0.59359108  0.61805049    -0.20400
F1918       F  0.91713451  0.64478539  0.55785462    -0.20400
F1919       F  0.98323958  0.70033110  0.54915171    -0.20800
F1920       F  0.93412918  0.71468210  0.59178448    -0.23400
C1921       C  0.96105040  0.86307543  0.37038824    -0.06300
C1922       C  0.73338628  0.87836165  0.35019223    -0.00300
C1923       C  0.77611445  0.87372727  0.37024022    -0.08900
C1924       C  0.77309010  0.88562006  0.40387736    -0.07300
C1925       C  0.72874586  0.89446958  0.41949444    -0.00400
C1926       C  0.96668032  0.86820908  0.40460845    -0.08800
C1927       C  0.94738492  0.82353239  0.42731073     0.61600
H1928       H  0.93791368  0.82981273  0.36098848     0.12200
H1929       H  0.80657914  0.88902006  0.41810428     0.12300
C1930       C  0.82613280  0.85764938  0.35846739     0.61800
F1931       F  0.92860502  0.77880884  0.40995857    -0.23400
F1932       F  0.91107350  0.84251487  0.44706921    -0.20700
F1933       F  0.98509211  0.80640240  0.44688990    -0.20400
F1934       F  0.85426828  0.90390268  0.35108749    -0.20400
F1935       F  0.82422113  0.82300012  0.33180620    -0.20800
F1936       F  0.84940404  0.83004086  0.38316174    -0.23400
C1937       C  0.03446224  0.63221565  0.36891264    -0.06300
C1938       C  0.98862858  0.63005038  0.35292182    -0.00300
C1939       C  0.74972548  0.56431293  0.35998526    -0.08900
C1940       C  0.75076900  0.55038152  0.39342442    -0.06300
C1941       C  0.99804019  0.60506394  0.42081876    -0.00400
C1942       C  0.04027746  0.61939948  0.40222007    -0.08800
C1943       C  0.09168577  0.62048176  0.41651891     0.61600
H1944       H  0.06666322  0.64389317  0.35511221     0.12200
H1945       H  0.75406085  0.50817373  0.40014446     0.12300
C1946       C  0.74843380  0.51628204  0.33666985     0.61800
F1947       F  0.12508356  0.64705731  0.39607383    -0.23400
F1948       F  0.10650847  0.56802645  0.42073943    -0.20700
F1949       F  0.09293939  0.64767607  0.44631737    -0.20400
F1950       F  0.78845314  0.48598589  0.34321809    -0.20400
F1951       F  0.74794886  0.52722343  0.30356875    -0.20800
F1952       F  0.70612322  0.48628541  0.34295291    -0.23400
C1953       C  0.90285048  0.62211013  0.09194822    -0.06300
C1954       C  0.86514851  0.65231864  0.07911222    -0.00300
C1955       C  0.82829032  0.66828962  0.10081728    -0.08900
C1956       C  0.83420268  0.66084954  0.13457906    -0.06300
C1957       C  0.87175295  0.63154029  0.14825670    -0.00400
C1958       C  0.90717044  0.61052341  0.12599986    -0.08800
C1959       C  0.95089084  0.57794470  0.13689762     0.61600
H1960       H  0.92961872  0.60854304  0.07480024     0.12200
H1961       H  0.80817789  0.67859152  0.15012910     0.12300
C1962       C  0.78280190  0.69499235  0.08930163     0.61800
F1963       F  0.97890721  0.56313496  0.11044512    -0.23400
F1964       F  0.93654340  0.53056889  0.15253026    -0.20700
F1965       F  0.98107685  0.60817581  0.15771951    -0.20400
F1966       F  0.76034888  0.66454128  0.06453676    -0.20400
F1967       F  0.79498627  0.74633291  0.07820600    -0.20800
F1968       F  0.74939307  0.69964163  0.11435184    -0.23400
C1969       C  0.83373974  0.87388230  0.08770995    -0.06300
C1970       C  0.87094821  0.83940503  0.07916812    -0.00300
C1971       C  0.90153167  0.82167555  0.10479230    -0.08900
C1972       C  0.88840690  0.82922521  0.13736550    -0.06300
C1973       C  0.85513513  0.86733733  0.14670060    -0.00400
C1974       C  0.82593126  0.88995767  0.12083671    -0.08800
C1975       C  0.78830377  0.93288641  0.12595718     0.61600
H1976       H  0.81155519  0.88952726  0.06811376     0.12200
H1977       H  0.90550330  0.80482619  0.15556199     0.12300
C1978       C  0.94796823  0.79362861  0.09860623     0.61800
F1979       F  0.99966630  0.92653410  0.10304949    -0.23400
F1980       F  0.80958432  0.98354458  0.11955245    -0.20700
F1981       F  0.76905527  0.93218759  0.15718782    -0.20400
F1982       F  0.97691203  0.82412895  0.07736193    -0.20400
F1983       F  0.93613431  0.74406499  0.08525364    -0.20800
F1984       F  0.73969737  0.81195782  0.11676344    -0.23400
C1985       C  0.85308822  0.62180245  0.90557354    -0.06300
C1986       C  0.89206765  0.65250975  0.91929859    -0.00300
C1987       C  0.93292911  0.66632409  0.89925043    -0.08900
C1988       C  0.92987048  0.65599310  0.86537602    -0.06300
C1989       C  0.88980164  0.62793418  0.85060956    -0.00400
C1990       C  0.85095820  0.60790375  0.87187318    -0.08800
C1991       C  0.80529231  0.57488999  0.86022283     0.61600
H1992       H  0.82313503  0.61028587  0.92163343     0.12200
H1993       H  0.95987884  0.67010156  0.85055873     0.12300
C1994       C  0.98005713  0.69241741  0.91285177     0.61800
F1995       F  0.77658415  0.55710780  0.88630814    -0.23400
F1996       F  0.81692660  0.52913598  0.84303549    -0.20700
F1997       F  0.77659700  0.60618661  0.84075577    -0.20400
F1998       F  0.99688746  0.66179713  0.93861884    -0.20400
F1999       F  0.97278817  0.74474229  0.92318010    -0.20800
F2000       F  0.01627647  0.69517521  0.88959091    -0.23400
C2001       C  0.92103385  0.88082461  0.87098814    -0.06300
C2002       C  0.88667105  0.85601244  0.84877392    -0.00300
C2003       C  0.85586317  0.81275738  0.86080891    -0.08900
C2004       C  0.85334238  0.80454621  0.89488073    -0.06300
C2005       C  0.88544281  0.83158240  0.91711223    -0.00400
C2006       C  0.92108596  0.86927832  0.90493528    -0.08800
C2007       C  0.95804959  0.89814467  0.92755909     0.61600
H2008       H  0.94787592  0.91019698  0.86148409     0.12200
H2009       H  0.82839186  0.77282763  0.90406842     0.12300
C2010       C  0.83040044  0.76930411  0.83949992     0.61800
F2011       F  0.98280527  0.94082146  0.91186932    -0.23400
F2012       F  0.99193054  0.86204074  0.93809445    -0.20700
F2013       F  0.93469597  0.91901904  0.95453608    -0.20400
F2014       F  0.85042339  0.76587954  0.80850731    -0.20400
F2015       F  0.78106207  0.77804934  0.83742641    -0.20800
F2016       F  0.83560188  0.71939208  0.85371467    -0.23400
loop_ 
_geom_bond_atom_site_label_1 
_geom_bond_atom_site_label_2 
_geom_bond_distance 
_geom_bond_site_symmetry_2 
_ccdc_geom_bond_type 
O1           Ni9   1.946       .  S
O1           C11   1.288       .  A
O2           Ni9   1.949   1_554  S
O2           C12   1.287       .  A
O3           Ni9   1.905       .  S
O3           C13   1.279       .  A
O4           Ni9   1.917   1_554  S
O4           C14   1.279       .  A
O5          Ni10   1.927       .  S
O5           C14   1.282       .  A
O6          Ni10   1.920   1_556  S
O6           C13   1.281       .  A
O7          Ni10   1.909       .  S
O7           C12   1.276       .  A
O8          Ni10   1.894   1_556  S
O8           C11   1.272       .  A
Ni9         Ni10   2.374   1_556  S
C11         C222   1.500       .  S
C12         C206   1.511       .  S
C13         C241   1.485       .  S
C14         C190   1.502       .  S
C15          C16   1.548       .  S
C15          C21   1.500       .  S
C15          C19   1.530       .  S
C15         C193   1.554       .  S
C16          H23   1.073       .  S
C16          C17   1.373       .  D
C17          C18   1.587       .  S
C17          C44   1.530       .  S
C18          C22   1.590       .  S
C18          C20   1.564       .  S
C18          H24   1.105       .  S
C19          H25   1.082       .  S
C19          C20   1.371       .  D
C20          C41   1.510       .  S
C21          H26   1.080       .  S
C21          C22   1.360       .  D
C22         C286   1.560   1_545  S
C27          C28   1.548       .  S
C27          C33   1.505       .  S
C27          C31   1.531       .  S
C27         C209   1.557       .  S
C28          H35   1.072       .  S
C28          C29   1.365       .  D
C29          C30   1.582       .  S
C29          C56   1.524       .  S
C30          C34   1.586       .  S
C30          C32   1.572       .  S
C30          H36   1.102       .  S
C31          H37   1.083       .  S
C31          C32   1.368       .  D
C32          C53   1.512       .  S
C33          H38   1.076       .  S
C33          C34   1.372       .  D
C34         C274   1.572       .  S
C39          C40   1.542       .  S
C39          C45   1.507       .  S
C39         C547   1.529       .  S
C39         C174   1.545       .  S
C40          H47   1.083       .  S
C40          C41   1.368       .  D
C41          C42   1.556       .  S
C42          C46   1.576       .  S
C42         C548   1.587       .  S
C42          H48   1.101       .  S
C43        C1551   1.553   1_455  S
C43          H49   1.083       .  S
C43          C44   1.374       .  D
C44        C1554   1.577   1_455  S
C45          H50   1.082       .  S
C45          C46   1.362       .  D
C46         C562   1.553       .  S
C51          C52   1.533   1_655  S
C51          C57   1.510       .  S
C51        C1567   1.535       .  S
C51         C158   1.537       .  S
C52          H59   1.081       .  S
C52          C53   1.369       .  D
C53          C54   1.578   1_455  S
C54          C58   1.580       .  S
C54        C1568   1.572       .  S
C54          H60   1.101       .  S
C55         C555   1.539       .  S
C55          H61   1.081       .  S
C55          C56   1.371       .  D
C56         C558   1.593       .  S
C57          H62   1.081       .  S
C57          C58   1.366       .  D
C58        C1558   1.553       .  S
O63        Ni323   1.915   1_545  S
O63          C73   1.279   1_455  A
O64         Ni71   1.919       .  S
O64        C1586   1.281       .  A
O65         Ni71   1.909       .  S
O65        C1587   1.279   1_455  A
O66        Ni323   1.912   1_545  S
O66          C76   1.283       .  A
O67        Ni324   1.921   1_545  S
O67         C580   1.280       .  A
O68         Ni72   1.911       .  S
O68          C75   1.278       .  A
O69         Ni72   1.921       .  S
O69          C74   1.283       .  A
O70        Ni324   1.919   1_545  S
O70         C577   1.281       .  A
Ni71        O315   1.903       .  S
Ni71        O318   1.902       .  S
Ni71      Ni1584   2.386   1_455  S
Ni72        O319   1.909       .  S
Ni72        O322   1.923       .  S
Ni72       Ni575   2.384       .  S
C73        O1582   1.284       .  A
C73        C1689   1.496       .  S
C74         O568   1.279       .  A
C74         C126   1.481       .  S
C75         O569   1.283       .  A
C75         C665   1.494       .  S
C76        O1579   1.278   1_455  A
C76         C142   1.498       .  S
C77          C78   1.549       .  S
C77          C83   1.500       .  S
C77          C81   1.526       .  S
C77         C225   1.555       .  S
C78          H85   1.075       .  S
C78          C79   1.383       .  D
C79          C80   1.578       .  S
C79         C106   1.528       .  S
C80          C84   1.587       .  S
C80          C82   1.584       .  S
C80          H86   1.105       .  S
C81          H87   1.080       .  S
C81          C82   1.360       .  D
C82         C103   1.522       .  S
C83          H88   1.079       .  S
C83          C84   1.364       .  D
C84         C348   1.561   1_545  S
C89          C90   1.532       .  S
C89          C95   1.509       .  S
C89          C93   1.528       .  S
C89         C238   1.538       .  S
C90          H97   1.073       .  S
C90          C91   1.362       .  D
C91          C92   1.571       .  S
C91         C118   1.512       .  S
C92          C96   1.590       .  S
C92          C94   1.586       .  S
C92          H98   1.103       .  S
C93          H99   1.085       .  S
C93          C94   1.359       .  D
C94         C115   1.516       .  S
C95         H100   1.076       .  S
C95          C96   1.374       .  D
C96         C336   1.571       .  S
C101        C102   1.526       .  S
C101        C107   1.509       .  S
C101       C1617   1.546   1_455  S
C101        C145   1.544       .  S
C102        H109   1.073       .  S
C102        C103   1.363       .  D
C103        C104   1.596       .  S
C104       C1620   1.585       .  S
C104       C1618   1.569   1_455  S
C104        H110   1.102       .  S
C105        C605   1.559       .  S
C105        H111   1.082       .  S
C105        C106   1.379       .  D
C106        C608   1.557       .  S
C107        H112   1.079       .  S
C107       C1620   1.363       .  D
C108        C608   1.583       .  S
C108        C611   1.367       .  D
C108        C120   1.560       .  S
C113        C114   1.525       .  S
C113        C119   1.514       .  S
C113        C621   1.542       .  S
C113        C129   1.542       .  S
C114        H121   1.073       .  S
C114        C115   1.352       .  D
C115        C116   1.580       .  S
C116        C120   1.585       .  S
C116        C622   1.565       .  S
C116        H122   1.103       .  S
C117       C1625   1.540       .  S
C117        H123   1.082       .  S
C117        C118   1.367       .  D
C118       C1628   1.569       .  S
C119        H124   1.080       .  S
C119        C120   1.373       .  D
C125        C126   1.400       .  A
C125        C130   1.405       .  A
C125        H132   1.085       .  S
C126        C631   1.414       .  A
C127        C134   1.517       .  S
C127        C128   1.412       .  A
C127       C1638   1.414       .  A
C128       C1641   1.417       .  A
C128        H133   1.082       .  S
C129        C130   1.420       .  A
C129        C632   1.416       .  A
C130        C131   1.515       .  S
C131        F135   1.370       .  S
C131        F136   1.382       .  S
C131        F137   1.377       .  S
C134        F138   1.382       .  S
C134        F139   1.384       .  S
C134        F140   1.385       .  S
C141        C142   1.402       .  A
C141        C146   1.407       .  A
C141        H148   1.082       .  S
C142       C1655   1.421   1_455  A
C143        C150   1.519       .  S
C143        C144   1.416       .  A
C143        C646   1.406       .  A
C144        C649   1.425       .  A
C144        H149   1.082       .  S
C145        C146   1.428       .  A
C145       C1656   1.415   1_455  A
C146        C147   1.517       .  S
C147        F151   1.375       .  S
C147        F152   1.382       .  S
C147        F153   1.376       .  S
C150        F154   1.382       .  S
C150        F155   1.383       .  S
C150        F156   1.385       .  S
C157        C162   1.408       .  A
C157        C662   1.413       .  A
C157        H164   1.080       .  S
C158        C159   1.413       .  A
C158       C1669   1.424       .  A
C159        C166   1.511       .  S
C159        C160   1.402   1_655  A
C160        C161   1.399   1_455  A
C160        H165   1.084       .  S
C161       C1587   1.471       .  S
C161       C1674   1.406       .  A
C162        C163   1.520       .  S
C162        C665   1.421       .  A
C163        F167   1.385       .  S
C163        F168   1.382       .  S
C163        F169   1.384       .  S
C166        F170   1.376       .  S
C166        F171   1.383   1_655  S
C166        F172   1.372       .  S
C173        C174   1.429       .  A
C173        C178   1.409       .  A
C173        H180   1.078       .  S
C174        C679   1.418       .  A
C175        C182   1.521       .  S
C175        C176   1.407       .  A
C175       C1686   1.434       .  A
C176       C1689   1.403       .  A
C176        H181   1.083       .  S
C177        C577   1.472       .  S
C177        C178   1.402       .  A
C177        C680   1.398       .  A
C178        C179   1.518       .  S
C179        F183   1.385       .  S
C179        F184   1.383       .  S
C179        F185   1.382       .  S
C182        F186   1.382       .  S
C182        F187   1.381       .  S
C182        F188   1.385       .  S
C189        C190   1.399       .  A
C189        C194   1.418       .  A
C189        H196   1.083       .  S
C190        C191   1.414       .  A
C191        C198   1.503       .  S
C191        C192   1.400       .  A
C192        C193   1.399       .  A
C192        H197   1.069       .  S
C193        C194   1.449       .  A
C194        C195   1.531       .  S
C195        F199   1.380       .  S
C195        F200   1.382       .  S
C195        F201   1.375       .  S
C198        F202   1.381       .  S
C198        F203   1.370       .  S
C198        F204   1.385   1_455  S
C205        C206   1.403       .  A
C205        C210   1.425       .  A
C205        H212   1.082       .  S
C206        C207   1.418       .  A
C207        C214   1.500       .  S
C207        C208   1.393       .  A
C208        C209   1.394       .  A
C208        H213   1.071       .  S
C209        C210   1.447       .  A
C210        C211   1.527       .  S
C211        F216   1.381       .  S
C211        F217   1.377       .  S
C211       F1727   1.380   1_455  S
C214        F218   1.377       .  S
C214        F219   1.359       .  S
C214        F724   1.384       .  S
F215        C715   1.384       .  S
F220       C1726   1.384       .  S
C221        C222   1.397       .  A
C221        C226   1.416       .  A
C221        H228   1.081       .  S
C222        C223   1.424       .  A
C223        C230   1.519       .  S
C223        C224   1.407       .  A
C224        C225   1.404       .  A
C224        H229   1.072       .  S
C225        C226   1.449       .  A
C226        C227   1.536       .  S
C227        F231   1.385       .  S
C227        F232   1.377       .  S
C227        F233   1.376       .  S
C230        F234   1.382       .  S
C230        F235   1.379       .  S
C230        F236   1.374       .  S
C237        C238   1.417       .  A
C237        C242   1.410       .  A
C237        H244   1.083       .  S
C238        C239   1.413       .  A
C239        C246   1.517       .  S
C239        C240   1.403       .  A
C240        C241   1.407       .  A
C240        H245   1.083       .  S
C241        C242   1.415       .  A
C242        C243   1.519       .  S
C243        F247   1.385       .  S
C243        F248   1.382       .  S
C243        F249   1.383       .  S
C246        F250   1.382       .  S
C246        F251   1.383       .  S
C246        F252   1.369       .  S
O253       Ni261   1.934       .  S
O253        C263   1.286       .  A
O254       Ni261   1.941   1_554  S
O254        C264   1.285       .  A
O255       Ni261   1.905       .  S
O255        C265   1.278       .  A
O256       Ni261   1.909   1_554  S
O256        C266   1.277       .  A
O257       Ni262   1.926       .  S
O257        C266   1.282       .  A
O258       Ni262   1.918   1_556  S
O258        C265   1.280       .  A
O259       Ni262   1.892       .  S
O259        C264   1.272       .  A
O260       Ni262   1.890   1_556  S
O260        C263   1.272       .  A
Ni261      Ni262   2.375   1_556  S
C263        C474   1.490       .  S
C264        C458   1.496       .  S
C265        C493   1.477       .  S
C266        C442   1.497       .  S
C267        C268   1.541       .  S
C267        C273   1.503       .  S
C267        C271   1.520       .  S
C267        C445   1.551       .  S
C268        H275   1.076       .  S
C268        C269   1.371       .  D
C269        C270   1.594       .  S
C269        C296   1.522       .  S
C270        C274   1.590       .  S
C270        C272   1.570       .  S
C270        H276   1.105       .  S
C271        H277   1.077       .  S
C271        C272   1.366       .  D
C272        C293   1.513       .  S
C273        H278   1.077       .  S
C273        C274   1.365       .  D
C279        C280   1.542       .  S
C279        C285   1.509       .  S
C279        C283   1.531       .  S
C279        C461   1.543       .  S
C280        H287   1.078       .  S
C280        C281   1.362       .  D
C281        C282   1.581       .  S
C281        C308   1.516       .  S
C282        C286   1.565       .  S
C282        C284   1.571       .  S
C282        H288   1.098       .  S
C283        H289   1.081       .  S
C283        C284   1.365       .  D
C284        C305   1.498       .  S
C285        H290   1.077       .  S
C285        C286   1.368       .  D
C291        C292   1.548       .  S
C291        C297   1.509       .  S
C291        C799   1.526       .  S
C291        C426   1.543       .  S
C292        H299   1.084       .  S
C292        C293   1.366       .  D
C293        C294   1.557       .  S
C294        C298   1.573       .  S
C294        C800   1.597       .  S
C294        H300   1.099       .  S
C295       C1803   1.550   1_455  S
C295        H301   1.081       .  S
C295        C296   1.363       .  D
C296       C1806   1.573   1_455  S
C297        H302   1.081       .  S
C297        C298   1.362       .  D
C298        C814   1.556       .  S
C303        C304   1.515   1_655  S
C303        C309   1.507       .  S
C303       C1819   1.538       .  S
C303        C410   1.547       .  S
C304        H311   1.046       .  S
C304        C305   1.358       .  D
C305        C306   1.571   1_455  S
C306        C310   1.585       .  S
C306       C1820   1.579       .  S
C306        H312   1.102       .  S
C307        C807   1.533       .  S
C307        H313   1.080       .  S
C307        C308   1.371       .  D
C308        C810   1.594       .  S
C309        H314   1.082   1_655  S
C309        C310   1.366       .  D
C310       C1810   1.561       .  S
O315        C325   1.277   1_455  A
O316       Ni323   1.916       .  S
O316       C1838   1.278       .  A
O317       Ni323   1.908       .  S
O317       C1839   1.280   1_455  A
O318        C328   1.280       .  A
O319        C832   1.277       .  A
O320       Ni324   1.919       .  S
O320        C327   1.280       .  A
O321       Ni324   1.920       .  S
O321        C326   1.284       .  A
O322        C829   1.282       .  A
Ni323     Ni1836   2.381   1_455  S
Ni324      Ni827   2.384       .  S
C325       O1834   1.282       .  A
C325       C1941   1.490       .  S
C326        O820   1.278       .  A
C326        C378   1.488       .  S
C327        O821   1.284       .  A
C327        C917   1.498       .  S
C328       O1831   1.278   1_455  A
C328        C394   1.470       .  S
C329        C330   1.544       .  S
C329        C335   1.501       .  S
C329        C333   1.532       .  S
C329        C477   1.544       .  S
C330        H337   1.077       .  S
C330        C331   1.377       .  D
C331        C332   1.581       .  S
C331        C358   1.516       .  S
C332        C336   1.586       .  S
C332        C334   1.580       .  S
C332        H338   1.102       .  S
C333        H339   1.080       .  S
C333        C334   1.358       .  D
C334        C355   1.520       .  S
C335        H340   1.080       .  S
C335        C336   1.361       .  D
C341        C342   1.529       .  S
C341        C347   1.516       .  S
C341        C345   1.527       .  S
C341        C490   1.537       .  S
C342        H349   1.072       .  S
C342        C343   1.361       .  D
C343        C344   1.566       .  S
C343        C370   1.505       .  S
C344        C348   1.578       .  S
C344        C346   1.582       .  S
C344        H350   1.103       .  S
C345        H351   1.085       .  S
C345        C346   1.358       .  D
C346        C367   1.509       .  S
C347        H352   1.076       .  S
C347        C348   1.375       .  D
C353        C354   1.520       .  S
C353        C359   1.510       .  S
C353       C1869   1.550   1_455  S
C353        C397   1.548       .  S
C354        H361   1.062       .  S
C354        C355   1.355       .  D
C355        C356   1.590       .  S
C356       C1872   1.590       .  S
C356       C1870   1.565   1_455  S
C356        H362   1.101       .  S
C357        C857   1.548       .  S
C357        H363   1.081       .  S
C357        C358   1.372       .  D
C358        C860   1.567       .  S
C359        H364   1.080       .  S
C359       C1872   1.363       .  D
C360        C860   1.582       .  S
C360        C863   1.361       .  D
C360        C372   1.562       .  S
C365        C366   1.518       .  S
C365        C371   1.517       .  S
C365        C873   1.548       .  S
C365        C381   1.552       .  S
C366        H373   1.072       .  S
C366        C367   1.351       .  D
C367        C368   1.578       .  S
C368        C372   1.582       .  S
C368        C874   1.564       .  S
C368        H374   1.103       .  S
C369       C1877   1.536       .  S
C369        H375   1.082       .  S
C369        C370   1.366       .  D
C370       C1880   1.566       .  S
C371        H376   1.079       .  S
C371        C372   1.375       .  D
C377        C378   1.400       .  A
C377        C382   1.403       .  A
C377        H384   1.085       .  S
C378        C883   1.415       .  A
C379        C386   1.517       .  S
C379       C1890   1.421       .  A
C379        C380   1.414       .  A
C380       C1893   1.415       .  A
C380        H385   1.083       .  S
C381        C884   1.417       .  A
C381        C382   1.429       .  A
C382        C383   1.519       .  S
C383        F387   1.380   1_565  S
C383        F388   1.380       .  S
C383        F389   1.382       .  S
C386        F390   1.380       .  S
C386        F391   1.383       .  S
C386        F392   1.385       .  S
C393        C394   1.395       .  A
C393        C398   1.397       .  A
C393        H400   1.084       .  S
C394       C1907   1.406   1_455  A
C395        C402   1.519       .  S
C395        C898   1.418       .  A
C395        C396   1.409       .  A
C396        C901   1.416       .  A
C396        H401   1.082       .  S
C397       C1908   1.423   1_455  A
C397        C398   1.429       .  A
C398        C399   1.513       .  S
C399        F403   1.379       .  S
C399        F404   1.379       .  S
C399        F405   1.385       .  S
C402        F406   1.380       .  S
C402        F407   1.384       .  S
C402        F408   1.385       .  S
C409        C914   1.412       .  A
C409        C414   1.411       .  A
C409        H416   1.080       .  S
C410       C1921   1.423       .  A
C410        C411   1.428   1_655  A
C411        C418   1.519       .  S
C411        C412   1.405       .  A
C412        C413   1.399   1_455  A
C412        H417   1.083       .  S
C413       C1839   1.472       .  S
C413       C1926   1.402       .  A
C414        C415   1.514       .  S
C414        C917   1.420       .  A
C415        F419   1.384       .  S
C415        F420   1.382       .  S
C415        F421   1.384       .  S
C418        F422   1.384       .  S
C418        F423   1.381       .  S
C418        F424   1.366   1_565  S
C425        C426   1.429       .  A
C425        C430   1.410       .  A
C425        H432   1.076       .  S
C426        C931   1.418       .  A
C427        C434   1.525       .  S
C427       C1938   1.434       .  A
C427        C428   1.406       .  A
C428       C1941   1.405       .  A
C428        H433   1.083       .  S
C429        C829   1.473       .  S
C429        C932   1.395       .  A
C429        C430   1.401       .  A
C430        C431   1.516       .  S
C431        F435   1.385       .  S
C431        F436   1.383       .  S
C431        F437   1.382       .  S
C434        F438   1.382       .  S
C434        F439   1.379       .  S
C434        F440   1.386       .  S
C441        C442   1.397       .  A
C441        C446   1.418       .  A
C441        H448   1.078       .  S
C442        C443   1.412       .  A
C443        C450   1.505       .  S
C443        C444   1.400       .  A
C444        C445   1.399       .  A
C444        H449   1.069       .  S
C445        C446   1.446       .  A
C446        C447   1.535       .  S
C447        F451   1.385       .  S
C447        F452   1.375       .  S
C447        F453   1.375       .  S
C450        F454   1.382       .  S
C450        F455   1.376       .  S
C450        F456   1.378   1_455  S
C457        C458   1.402       .  A
C457        C462   1.420       .  A
C457        H464   1.080       .  S
C458        C459   1.422       .  A
C459        C466   1.514       .  S
C459        C460   1.390       .  A
C460        C461   1.399       .  A
C460        H465   1.073       .  S
C461        C462   1.440       .  A
C462        C463   1.533       .  S
C463       F1979   1.384   1_455  S
C463        F468   1.377       .  S
C463        F469   1.376   1_455  S
C466        F470   1.382       .  S
C466        F471   1.371       .  S
C466        F976   1.386       .  S
F467        C967   1.381       .  S
F472       C1978   1.385       .  S
C473        C474   1.396       .  A
C473        C478   1.412       .  A
C473        H480   1.081       .  S
C474        C475   1.421       .  A
C475        C482   1.520       .  S
C475        C476   1.403       .  A
C476        C477   1.403       .  A
C476        H481   1.071       .  S
C477        C478   1.447       .  A
C478        C479   1.535       .  S
C479        F483   1.385       .  S
C479        F484   1.377       .  S
C479        F485   1.375       .  S
C482        F486   1.383       .  S
C482        F487   1.379       .  S
C482        F488   1.375       .  S
C489        C490   1.417       .  A
C489        C494   1.407       .  A
C489        H496   1.082       .  S
C490        C491   1.418       .  A
C491        C498   1.519       .  S
C491        C492   1.403       .  A
C492        C493   1.403       .  A
C492        H497   1.083       .  S
C493        C494   1.410       .  A
C494        C495   1.518       .  S
C495        F499   1.385       .  S
C495        F500   1.381       .  S
C495        F501   1.383       .  S
C498        F502   1.383       .  S
C498        F503   1.383       .  S
C498        F504   1.366       .  S
O505       Ni513   1.934       .  S
O505        C515   1.285       .  A
O506       Ni513   1.942   1_554  S
O506        C516   1.286       .  A
O507       Ni513   1.909       .  S
O507        C517   1.280       .  A
O508       Ni513   1.909   1_554  S
O508        C518   1.278       .  A
O509       Ni514   1.920       .  S
O509        C518   1.280       .  A
O510       Ni514   1.915   1_556  S
O510        C517   1.279       .  A
O511       Ni514   1.895       .  S
O511        C516   1.273       .  A
O512       Ni514   1.890   1_556  S
O512        C515   1.272       .  A
Ni513      Ni514   2.374   1_556  S
C515        C726   1.489       .  S
C516        C710   1.502       .  S
C517        C745   1.482       .  S
C518        C694   1.493       .  S
C519        C520   1.548       .  S
C519        C525   1.510       .  S
C519        C523   1.526       .  S
C519        C697   1.546       .  S
C520        H527   1.079       .  S
C520        C521   1.368       .  D
C521        C522   1.581       .  S
C521        C548   1.515       .  S
C522        C526   1.566       .  S
C522        C524   1.566       .  S
C522        H528   1.100       .  S
C523        H529   1.081       .  S
C523        C524   1.362       .  D
C524        C545   1.496       .  S
C525        H530   1.077       .  S
C525        C526   1.367       .  D
C526        C790   1.561   1_545  S
C531        C532   1.543       .  S
C531        C537   1.499       .  S
C531        C535   1.524       .  S
C531        C713   1.549       .  S
C532        H539   1.080       .  S
C532        C533   1.366       .  D
C533        C534   1.592       .  S
C533        C560   1.524       .  S
C534        C538   1.583       .  S
C534        C536   1.571       .  S
C534        H540   1.104       .  S
C535        H541   1.078       .  S
C535        C536   1.371       .  D
C536        C557   1.508       .  S
C537        H542   1.072       .  S
C537        C538   1.361       .  D
C538        C778   1.565       .  S
C543        C544   1.520       .  S
C543        C549   1.513       .  S
C543       C1051   1.547       .  S
C543        C678   1.554       .  S
C544        H551   1.062       .  S
C544        C545   1.357       .  D
C545        C546   1.565       .  S
C546        C550   1.579       .  S
C546       C1052   1.576       .  S
C546        H552   1.101       .  S
C547        H553   1.080       .  S
C547        C548   1.369       .  D
C549        H554   1.081       .  S
C549        C550   1.375       .  D
C550       C1066   1.557       .  S
C555        C556   1.543       .  S
C555        C561   1.499       .  S
C555        C662   1.544       .  S
C556        H563   1.072       .  S
C556        C557   1.366       .  D
C557        C558   1.558       .  S
C558        C562   1.573       .  S
C558        H564   1.099       .  S
C559       C1059   1.534       .  S
C559        H565   1.080       .  S
C559        C560   1.359       .  D
C560       C1062   1.577       .  S
C561        H566   1.083       .  S
C561        C562   1.361       .  D
O567       Ni827   1.910   1_545  S
O567        C577   1.279       .  A
O568       Ni575   1.913       .  S
O569       Ni575   1.910       .  S
O570       Ni827   1.917   1_545  S
O570        C580   1.283       .  A
O571       Ni828   1.919   1_545  S
O571       C1084   1.279       .  A
O572       Ni576   1.914       .  S
O572        C579   1.280       .  A
O573       Ni576   1.911       .  S
O573        C578   1.281       .  A
O574       Ni828   1.917   1_545  S
O574       C1081   1.283       .  A
Ni575       O819   1.913       .  S
Ni575       O822   1.912       .  S
Ni576       O823   1.909       .  S
Ni576       O826   1.905       .  S
Ni576     Ni1079   2.387       .  S
C578       O1072   1.284       .  A
C578        C630   1.488       .  S
C579       O1073   1.278       .  A
C579       C1169   1.465       .  S
C580        C646   1.485       .  S
C581        C582   1.551       .  S
C581        C587   1.503       .  S
C581        C585   1.530       .  S
C581        C729   1.545       .  S
C582        H589   1.079       .  S
C582        C583   1.375       .  D
C583        C584   1.575       .  S
C583        C610   1.516       .  S
C584        C588   1.582       .  S
C584        C586   1.580       .  S
C584        H590   1.102       .  S
C585        H591   1.081       .  S
C585        C586   1.360       .  D
C586        C607   1.521       .  S
C587        H592   1.078       .  S
C587        C588   1.364       .  D
C588        C852   1.568   1_545  S
C593        C594   1.529       .  S
C593        C599   1.509       .  S
C593        C597   1.529       .  S
C593        C742   1.538       .  S
C594        H601   1.073       .  S
C594        C595   1.363       .  D
C595        C596   1.571       .  S
C595        C622   1.510       .  S
C596        C600   1.584       .  S
C596        C598   1.581       .  S
C596        H602   1.104       .  S
C597        H603   1.084       .  S
C597        C598   1.360       .  D
C598        C619   1.510       .  S
C599        H604   1.076       .  S
C599        C600   1.373       .  D
C600        C840   1.563       .  S
C605        C606   1.525       .  S
C605        C611   1.515       .  S
C605        C649   1.571       .  S
C606        H613   1.057       .  S
C606        C607   1.357       .  D
C607        C608   1.585       .  S
C608        H614   1.101       .  S
C609       C1109   1.542       .  S
C609        H615   1.080       .  S
C609        C610   1.371       .  D
C610       C1112   1.569       .  S
C611        H616   1.082       .  S
C612       C1112   1.587       .  S
C612       C1115   1.360       .  D
C612        C624   1.564       .  S
C617        C618   1.521       .  S
C617        C623   1.519       .  S
C617       C1125   1.544       .  S
C617        C633   1.553       .  S
C618        H625   1.072       .  S
C618        C619   1.353       .  D
C619        C620   1.577       .  S
C620        C624   1.580       .  S
C620       C1126   1.566       .  S
C620        H626   1.103       .  S
C621        H627   1.083       .  S
C621        C622   1.367       .  D
C623        H628   1.077       .  S
C623        C624   1.380       .  D
C629        C630   1.401       .  A
C629        C634   1.406       .  A
C629        H636   1.085       .  S
C630       C1135   1.412       .  A
C631        C638   1.517       .  S
C631        C632   1.409       .  A
C632        H637   1.083       .  S
C633       C1136   1.419       .  A
C633        C634   1.431       .  A
C634        C635   1.522       .  S
C635        F639   1.380       .  S
C635        F640   1.381       .  S
C635        F641   1.383       .  S
C638        F642   1.383       .  S
C638        F643   1.384       .  S
C638        F644   1.385       .  S
C645        C646   1.393       .  A
C645        C650   1.407       .  A
C645        H652   1.083       .  S
C647        C654   1.517       .  S
C647       C1150   1.417       .  A
C647        C648   1.412       .  A
C648       C1153   1.419       .  A
C648        H653   1.082       .  S
C649        C650   1.436       .  A
C650        C651   1.508       .  S
C651        F655   1.378       .  S
C651        F656   1.378       .  S
C651        F657   1.384   1_545  S
C654        F658   1.379       .  S
C654        F659   1.383       .  S
C654        F660   1.385       .  S
C661       C1166   1.426       .  A
C661        C666   1.408       .  A
C661        H668   1.080       .  S
C662        C663   1.437       .  A
C663        C670   1.526       .  S
C663        C664   1.404       .  A
C664        C665   1.402       .  A
C664        H669   1.083       .  S
C666        C667   1.516       .  S
C666       C1169   1.401       .  A
C667        F671   1.384       .  S
C667        F672   1.383       .  S
C667        F673   1.383       .  S
C670        F674   1.380       .  S
C670        F675   1.380       .  S
C670        F676   1.384       .  S
C677        C678   1.418       .  A
C677        C682   1.407       .  A
C677        H684   1.083       .  S
C678       C1183   1.435       .  A
C679        C686   1.512       .  S
C679        C680   1.405       .  A
C680        H685   1.084       .  S
C681       C1081   1.486       .  S
C681       C1184   1.401       .  A
C681        C682   1.413       .  A
C682        C683   1.517       .  S
C683        F687   1.385       .  S
C683        F688   1.383       .  S
C683        F689   1.384       .  S
C686        F690   1.381   1_545  S
C686        F691   1.374       .  S
C686        F692   1.375   1_545  S
C693        C694   1.398       .  A
C693        C698   1.416       .  A
C693        H700   1.078       .  S
C694        C695   1.413       .  A
C695        C702   1.507       .  S
C695        C696   1.399       .  A
C696        C697   1.399       .  A
C696        H701   1.070       .  S
C697        C698   1.444       .  A
C698        C699   1.535       .  S
C699        F703   1.385       .  S
C699        F704   1.377       .  S
C699        F705   1.375       .  S
C702        F706   1.383       .  S
C702        F707   1.377       .  S
C702        F708   1.380       .  S
C709        C710   1.400       .  A
C709        C714   1.422       .  A
C709        H716   1.079       .  S
C710        C711   1.420       .  A
C711        C718   1.512       .  S
C711        C712   1.395       .  A
C712        C713   1.401       .  A
C712        H717   1.071       .  S
C713        C714   1.446       .  A
C714        C715   1.536       .  S
C715        F720   1.376       .  S
C715        F721   1.375       .  S
C718        F722   1.382       .  S
C718        F723   1.370       .  S
C718       F1228   1.385       .  S
F719       C1219   1.380       .  S
C725        C726   1.396       .  A
C725        C730   1.413       .  A
C725        H732   1.081       .  S
C726        C727   1.420       .  A
C727        C734   1.518       .  S
C727        C728   1.402       .  A
C728        C729   1.403       .  A
C728        H733   1.072       .  S
C729        C730   1.447       .  A
C730        C731   1.535       .  S
C731        F735   1.386       .  S
C731        F736   1.377       .  S
C731        F737   1.377       .  S
C734        F738   1.381       .  S
C734        F739   1.379       .  S
C734        F740   1.372       .  S
C741        C742   1.417       .  A
C741        C746   1.408       .  A
C741        H748   1.083       .  S
C742        C743   1.414       .  A
C743        C750   1.517       .  S
C743        C744   1.403       .  A
C744        C745   1.406       .  A
C744        H749   1.084       .  S
C745        C746   1.415       .  A
C746        C747   1.520       .  S
C747        F751   1.385       .  S
C747        F752   1.382       .  S
C747        F753   1.383       .  S
C750        F754   1.382       .  S
C750        F755   1.383       .  S
C750        F756   1.370       .  S
O757       Ni765   1.936       .  S
O757        C767   1.287       .  A
O758       Ni765   1.939   1_554  S
O758        C768   1.285       .  A
O759       Ni765   1.899       .  S
O759        C769   1.278       .  A
O760       Ni765   1.911   1_554  S
O760        C770   1.277       .  A
O761       Ni766   1.927       .  S
O761        C770   1.284       .  A
O762       Ni766   1.928   1_556  S
O762        C769   1.283       .  A
O763       Ni766   1.914       .  S
O763        C768   1.278       .  A
O764       Ni766   1.897   1_556  S
O764        C767   1.274       .  A
Ni765      Ni766   2.378   1_556  S
C767        C978   1.493       .  S
C768        C962   1.502       .  S
C769        C997   1.486       .  S
C770        C946   1.499       .  S
C771        C772   1.549       .  S
C771        C777   1.504       .  S
C771        C775   1.532       .  S
C771        C949   1.558       .  S
C772        H779   1.072       .  S
C772        C773   1.365       .  D
C773        C774   1.584       .  S
C773        C800   1.519       .  S
C774        C778   1.577       .  S
C774        C776   1.568       .  S
C774        H780   1.102       .  S
C775        H781   1.081       .  S
C775        C776   1.370       .  D
C776        C797   1.511       .  S
C777        H782   1.078       .  S
C777        C778   1.368       .  D
C783        C784   1.544       .  S
C783        C789   1.499       .  S
C783        C787   1.522       .  S
C783        C965   1.547       .  S
C784        H791   1.074       .  S
C784        C785   1.365       .  D
C785        C786   1.586       .  S
C785        C812   1.528       .  S
C786        C790   1.597       .  S
C786        C788   1.570       .  S
C786        H792   1.106       .  S
C787        H793   1.081       .  S
C787        C788   1.369       .  D
C788        C809   1.515       .  S
C789        H794   1.076       .  S
C789        C790   1.367       .  D
C795        C796   1.531       .  S
C795        C801   1.499       .  S
C795       C1303   1.547       .  S
C795        C930   1.542       .  S
C796        H803   1.078       .  S
C796        C797   1.374       .  D
C797        C798   1.580       .  S
C798        C802   1.583       .  S
C798       C1304   1.574       .  S
C798        H804   1.102       .  S
C799        H805   1.081       .  S
C799        C800   1.367       .  D
C801        H806   1.081       .  S
C801        C802   1.362       .  D
C802       C1318   1.560       .  S
C807        C808   1.556       .  S
C807        C813   1.496       .  S
C807        C914   1.539       .  S
C808        H815   1.079       .  S
C808        C809   1.369       .  D
C809        C810   1.555       .  S
C810        C814   1.577       .  S
C810        H816   1.098       .  S
C811       C1311   1.543       .  S
C811        H817   1.082       .  S
C811        C812   1.368       .  D
C812       C1314   1.580       .  S
C813        H818   1.086       .  S
C813        C814   1.357       .  D
O819        C829   1.279       .  A
O820       Ni827   1.914       .  S
O821       Ni827   1.914       .  S
O822        C832   1.283       .  A
O823       C1336   1.278       .  A
O824       Ni828   1.919       .  S
O824        C831   1.281       .  A
O825       Ni828   1.918       .  S
O825        C830   1.283       .  A
O826       C1333   1.280       .  A
Ni828     Ni1331   2.385   1_565  S
C830       O1324   1.280       .  A
C830        C882   1.485       .  S
C831       O1325   1.280       .  A
C831       C1421   1.478       .  S
C832        C898   1.492       .  S
C833        C834   1.543       .  S
C833        C839   1.500       .  S
C833        C837   1.525       .  S
C833        C981   1.547       .  S
C834        H841   1.074       .  S
C834        C835   1.378       .  D
C835        C836   1.583       .  S
C835        C862   1.524       .  S
C836        C840   1.585       .  S
C836        C838   1.583       .  S
C836        H842   1.105       .  S
C837        H843   1.080       .  S
C837        C838   1.358       .  D
C838        C859   1.516       .  S
C839        H844   1.081       .  S
C839        C840   1.364       .  D
C845        C846   1.539       .  S
C845        C851   1.511       .  S
C845        C849   1.525       .  S
C845        C994   1.545       .  S
C846        H853   1.072       .  S
C846        C847   1.367       .  D
C847        C848   1.565       .  S
C847        C874   1.517       .  S
C848        C852   1.590       .  S
C848        C850   1.587       .  S
C848        H854   1.104       .  S
C849        H855   1.084       .  S
C849        C850   1.359       .  D
C850        C871   1.514       .  S
C851        H856   1.074       .  S
C851        C852   1.374       .  D
C857        C858   1.522       .  S
C857        C863   1.508       .  S
C857        C901   1.541       .  S
C858        H865   1.071       .  S
C858        C859   1.360       .  D
C859        C860   1.593       .  S
C860        H866   1.102       .  S
C861       C1361   1.554       .  S
C861        H867   1.082       .  S
C861        C862   1.374       .  D
C862       C1364   1.562       .  S
C863        H868   1.081       .  S
C864       C1364   1.584       .  S
C864       C1367   1.363       .  D
C864        C876   1.557       .  S
C869        C870   1.528       .  S
C869        C875   1.512       .  S
C869       C1377   1.538       .  S
C869        C885   1.541       .  S
C870        H877   1.067       .  S
C870        C871   1.353       .  D
C871        C872   1.576       .  S
C872        C876   1.580       .  S
C872       C1378   1.562       .  S
C872        H878   1.102       .  S
C873        H879   1.080       .  S
C873        C874   1.373       .  D
C875        H880   1.080       .  S
C875        C876   1.374       .  D
C881        C882   1.402       .  A
C881        C886   1.405       .  A
C881        H888   1.085       .  S
C882       C1387   1.415       .  A
C883        C890   1.517       .  S
C883        C884   1.411       .  A
C884        H889   1.083       .  S
C885       C1388   1.416       .  A
C885        C886   1.416       .  A
C886        C887   1.512       .  S
C887        F891   1.367   1_565  S
C887        F892   1.383       .  S
C887        F893   1.374       .  S
C890        F894   1.382       .  S
C890        F895   1.384       .  S
C890        F896   1.385       .  S
C897        C898   1.400       .  A
C897        C902   1.404       .  A
C897        H904   1.082       .  S
C899        C906   1.518       .  S
C899       C1402   1.402       .  A
C899        C900   1.406       .  A
C900       C1405   1.422       .  A
C900        H905   1.082       .  S
C901        C902   1.429       .  A
C902        C903   1.517       .  S
C903        F907   1.375       .  S
C903        F908   1.382       .  S
C903        F909   1.379       .  S
C906        F910   1.382       .  S
C906        F911   1.384       .  S
C906        F912   1.385       .  S
C913       C1418   1.422       .  A
C913        C918   1.407       .  A
C913        H920   1.082       .  S
C914        C915   1.431       .  A
C915        C922   1.523       .  S
C915        C916   1.403       .  A
C916        C917   1.400       .  A
C916        H921   1.083       .  S
C918        C919   1.516       .  S
C918       C1421   1.403       .  A
C919        F923   1.383       .  S
C919        F924   1.382       .  S
C919        F925   1.383       .  S
C922        F926   1.379       .  S
C922        F927   1.374       .  S
C922        F928   1.383       .  S
C929        C930   1.416       .  A
C929        C934   1.405       .  A
C929        H936   1.079       .  S
C930       C1435   1.434       .  A
C931        C938   1.512       .  S
C931        C932   1.404       .  A
C932        H937   1.083       .  S
C933       C1333   1.491       .  S
C933       C1436   1.406       .  A
C933        C934   1.415       .  A
C934        C935   1.519       .  S
C935        F939   1.385       .  S
C935        F940   1.381       .  S
C935        F941   1.384       .  S
C938        F942   1.377       .  S
C938        F943   1.374       .  S
C938        F944   1.377       .  S
C945        C946   1.400       .  A
C945        C950   1.421       .  A
C945        H952   1.080       .  S
C946        C947   1.413       .  A
C947        C954   1.508       .  S
C947        C948   1.397       .  A
C948        C949   1.400       .  A
C948        H953   1.065       .  S
C949        C950   1.448       .  A
C950        C951   1.536       .  S
C951        F955   1.385       .  S
C951        F956   1.370       .  S
C951        F957   1.376       .  S
C954        F958   1.380       .  S
C954        F959   1.372       .  S
C954        F960   1.382       .  S
C961        C962   1.402       .  A
C961        C966   1.420       .  A
C961        H968   1.083       .  S
C962        C963   1.419       .  A
C963        C970   1.498       .  S
C963        C964   1.389       .  A
C964        C965   1.390       .  A
C964        H969   1.076       .  S
C965        C966   1.443       .  A
C966        C967   1.525       .  S
C967        F972   1.381       .  S
C967        F973   1.379       .  S
C970        F974   1.377       .  S
C970        F975   1.358       .  S
C970       F1480   1.386       .  S
F971       C1471   1.385       .  S
C977        C978   1.396       .  A
C977        C982   1.413       .  A
C977        H984   1.081       .  S
C978        C979   1.421       .  A
C979        C986   1.518       .  S
C979        C980   1.404       .  A
C980        C981   1.403       .  A
C980        H985   1.071       .  S
C981        C982   1.448       .  A
C982        C983   1.536       .  S
C983        F987   1.385       .  S
C983        F988   1.376       .  S
C983        F989   1.375       .  S
C986        F990   1.381       .  S
C986        F991   1.379       .  S
C986        F992   1.376       .  S
C993        C994   1.421       .  A
C993        C998   1.413       .  A
C993       H1000   1.083       .  S
C994        C995   1.415       .  A
C995       C1002   1.516       .  S
C995        C996   1.403       .  A
C996        C997   1.406       .  A
C996       H1001   1.084       .  S
C997        C998   1.412       .  A
C998        C999   1.519       .  S
C999       F1003   1.385       .  S
C999       F1004   1.382       .  S
C999       F1005   1.384       .  S
C1002      F1006   1.382       .  S
C1002      F1007   1.383       .  S
C1002      F1008   1.368       .  S
O1009     Ni1017   1.941       .  S
O1009      C1019   1.287       .  A
O1010     Ni1017   1.943   1_554  S
O1010      C1020   1.286       .  A
O1011     Ni1017   1.903       .  S
O1011      C1021   1.278       .  A
O1012     Ni1017   1.915   1_554  S
O1012      C1022   1.278       .  A
O1013     Ni1018   1.927       .  S
O1013      C1022   1.283       .  A
O1014     Ni1018   1.925   1_556  S
O1014      C1021   1.282       .  A
O1015     Ni1018   1.911       .  S
O1015      C1020   1.277       .  A
O1016     Ni1018   1.891   1_556  S
O1016      C1019   1.272       .  A
Ni1017    Ni1018   2.376   1_556  S
C1019      C1230   1.498       .  S
C1020      C1214   1.504       .  S
C1021      C1249   1.486       .  S
C1022      C1198   1.501       .  S
C1023      C1024   1.549       .  S
C1023      C1029   1.500       .  S
C1023      C1027   1.528       .  S
C1023      C1201   1.551       .  S
C1024      H1031   1.071       .  S
C1024      C1025   1.373       .  D
C1025      C1026   1.585       .  S
C1025      C1052   1.531       .  S
C1026      C1030   1.591       .  S
C1026      C1028   1.567       .  S
C1026      H1032   1.104       .  S
C1027      H1033   1.082       .  S
C1027      C1028   1.368       .  D
C1028      C1049   1.511       .  S
C1029      H1034   1.080       .  S
C1029      C1030   1.361       .  D
C1030      C1294   1.560   1_545  S
C1035      C1036   1.547       .  S
C1035      C1041   1.503       .  S
C1035      C1039   1.530       .  S
C1035      C1217   1.551       .  S
C1036      H1043   1.072       .  S
C1036      C1037   1.361       .  D
C1037      C1038   1.583       .  S
C1037      C1064   1.522       .  S
C1038      C1042   1.588       .  S
C1038      C1040   1.571       .  S
C1038      H1044   1.102       .  S
C1039      H1045   1.083       .  S
C1039      C1040   1.367       .  D
C1040      C1061   1.510       .  S
C1041      H1046   1.076       .  S
C1041      C1042   1.371       .  D
C1042      C1282   1.570       .  S
C1047      C1048   1.541       .  S
C1047      C1053   1.508       .  S
C1047      C1555   1.529       .  S
C1047      C1182   1.548       .  S
C1048      H1055   1.083       .  S
C1048      C1049   1.366       .  D
C1049      C1050   1.559       .  S
C1050      C1054   1.577       .  S
C1050      C1556   1.592       .  S
C1050      H1056   1.101       .  S
C1051      H1057   1.081       .  S
C1051      C1052   1.370       .  D
C1053      H1058   1.083       .  S
C1053      C1054   1.363       .  D
C1054      C1570   1.557       .  S
C1059      C1060   1.531       .  S
C1059      C1065   1.506       .  S
C1059      C1166   1.534       .  S
C1060      H1067   1.082       .  S
C1060      C1061   1.369       .  D
C1061      C1062   1.580       .  S
C1062      C1066   1.587       .  S
C1062      H1068   1.102       .  S
C1063      C1563   1.538       .  S
C1063      H1069   1.081       .  S
C1063      C1064   1.368       .  D
C1064      C1566   1.594       .  S
C1065      H1070   1.081       .  S
C1065      C1066   1.363       .  D
O1071     Ni1331   1.912       .  S
O1071      C1081   1.279       .  A
O1072     Ni1079   1.929       .  S
O1073     Ni1079   1.906       .  S
O1074     Ni1331   1.903       .  S
O1074      C1084   1.282       .  A
O1075     Ni1332   1.928   1_545  S
O1075      C1588   1.282       .  A
O1076     Ni1080   1.911       .  S
O1076      C1083   1.278       .  A
O1077     Ni1080   1.915       .  S
O1077      C1082   1.282       .  A
O1078     Ni1332   1.922   1_545  S
O1078      C1585   1.282       .  A
Ni1079     O1323   1.920       .  S
Ni1079     O1326   1.902       .  S
Ni1080     O1327   1.917       .  S
Ni1080     O1330   1.923       .  S
Ni1080    Ni1583   2.385       .  S
C1082      O1576   1.279       .  A
C1082      C1134   1.476       .  S
C1083      O1577   1.283       .  A
C1083      C1673   1.496       .  S
C1084      C1150   1.490       .  S
C1085      C1086   1.552       .  S
C1085      C1091   1.501       .  S
C1085      C1089   1.522       .  S
C1085      C1233   1.555       .  S
C1086      H1093   1.076       .  S
C1086      C1087   1.383       .  D
C1087      C1088   1.578       .  S
C1087      C1114   1.529       .  S
C1088      C1092   1.586       .  S
C1088      C1090   1.588       .  S
C1088      H1094   1.104       .  S
C1089      H1095   1.081       .  S
C1089      C1090   1.356       .  D
C1090      C1111   1.520       .  S
C1091      H1096   1.078       .  S
C1091      C1092   1.366       .  D
C1092      C1356   1.566   1_545  S
C1097      C1098   1.533       .  S
C1097      C1103   1.510       .  S
C1097      C1101   1.528       .  S
C1097      C1246   1.542       .  S
C1098      H1105   1.074       .  S
C1098      C1099   1.363       .  D
C1099      C1100   1.569       .  S
C1099      C1126   1.513       .  S
C1100      C1104   1.588       .  S
C1100      C1102   1.587       .  S
C1100      H1106   1.103       .  S
C1101      H1107   1.084       .  S
C1101      C1102   1.359       .  D
C1102      C1123   1.515       .  S
C1103      H1108   1.075       .  S
C1103      C1104   1.374       .  D
C1104      C1344   1.568       .  S
C1109      C1110   1.524       .  S
C1109      C1115   1.506       .  S
C1109      C1153   1.538       .  S
C1110      H1117   1.071       .  S
C1110      C1111   1.359       .  D
C1111      C1112   1.596       .  S
C1112      H1118   1.103       .  S
C1113      C1613   1.554       .  S
C1113      H1119   1.082       .  S
C1113      C1114   1.378       .  D
C1114      C1616   1.561       .  S
C1115      H1120   1.080       .  S
C1116      C1616   1.584       .  S
C1116      C1619   1.368       .  D
C1116      C1128   1.561       .  S
C1121      C1122   1.525       .  S
C1121      C1127   1.515       .  S
C1121      C1629   1.538       .  S
C1121      C1137   1.538       .  S
C1122      H1129   1.070       .  S
C1122      C1123   1.352       .  D
C1123      C1124   1.579       .  S
C1124      C1128   1.584       .  S
C1124      C1630   1.569       .  S
C1124      H1130   1.103       .  S
C1125      H1131   1.082       .  S
C1125      C1126   1.369       .  D
C1127      H1132   1.078       .  S
C1127      C1128   1.373       .  D
C1133      C1134   1.401       .  A
C1133      C1138   1.402       .  A
C1133      H1140   1.085       .  S
C1134      C1639   1.415       .  A
C1135      C1142   1.516       .  S
C1135      C1136   1.411       .  A
C1136      H1141   1.084       .  S
C1137      C1640   1.414       .  A
C1137      C1138   1.418       .  A
C1138      C1139   1.513       .  S
C1139      F1143   1.372       .  S
C1139      F1144   1.383       .  S
C1139      F1145   1.376       .  S
C1142      F1146   1.382       .  S
C1142      F1147   1.383       .  S
C1142      F1148   1.385       .  S
C1149      C1150   1.401       .  A
C1149      C1154   1.400       .  A
C1149      H1156   1.083       .  S
C1151      C1158   1.519       .  S
C1151      C1654   1.408       .  A
C1151      C1152   1.417       .  A
C1152      C1657   1.425       .  A
C1152      H1157   1.082       .  S
C1153      C1154   1.425       .  A
C1154      C1155   1.517       .  S
C1155      F1159   1.377       .  S
C1155      F1160   1.382       .  S
C1155      F1161   1.376       .  S
C1158      F1162   1.382       .  S
C1158      F1163   1.383       .  S
C1158      F1164   1.385       .  S
C1165      C1670   1.411       .  A
C1165      C1170   1.407       .  A
C1165      H1172   1.078       .  S
C1166      C1167   1.414       .  A
C1167      C1174   1.513       .  S
C1167      C1168   1.401       .  A
C1168      C1169   1.398       .  A
C1168      H1173   1.083       .  S
C1170      C1171   1.521       .  S
C1170      C1673   1.424       .  A
C1171      F1175   1.384       .  S
C1171      F1176   1.382       .  S
C1171      F1177   1.383       .  S
C1174      F1178   1.375       .  S
C1174      F1179   1.383       .  S
C1174      F1180   1.371       .  S
C1181      C1182   1.429       .  A
C1181      C1186   1.411       .  A
C1181      H1188   1.076       .  S
C1182      C1687   1.419       .  A
C1183      C1190   1.522       .  S
C1183      C1184   1.407       .  A
C1184      H1189   1.084       .  S
C1185      C1585   1.477       .  S
C1185      C1688   1.397       .  A
C1185      C1186   1.401       .  A
C1186      C1187   1.516       .  S
C1187      F1191   1.384       .  S
C1187      F1192   1.383       .  S
C1187      F1193   1.382       .  S
C1190      F1194   1.380       .  S
C1190      F1195   1.381       .  S
C1190      F1196   1.384   1_545  S
C1197      C1198   1.400       .  A
C1197      C1202   1.418       .  A
C1197      H1204   1.083       .  S
C1198      C1199   1.415       .  A
C1199      C1206   1.502       .  S
C1199      C1200   1.398       .  A
C1200      C1201   1.396       .  A
C1200      H1205   1.070       .  S
C1201      C1202   1.448       .  A
C1202      C1203   1.532       .  S
C1203      F1207   1.381       .  S
C1203      F1208   1.382       .  S
C1203      F1209   1.376       .  S
C1206      F1210   1.380       .  S
C1206      F1211   1.372       .  S
C1206      F1212   1.384       .  S
C1213      C1214   1.403       .  A
C1213      C1218   1.422       .  A
C1213      H1220   1.083       .  S
C1214      C1215   1.418       .  A
C1215      C1222   1.499       .  S
C1215      C1216   1.389       .  A
C1216      C1217   1.391       .  A
C1216      H1221   1.074       .  S
C1217      C1218   1.444       .  A
C1218      C1219   1.525       .  S
C1219      F1224   1.379       .  S
C1219      F1225   1.378       .  S
C1222      F1226   1.376       .  S
C1222      F1227   1.359       .  S
C1222      F1732   1.386       .  S
F1223      C1723   1.384       .  S
C1229      C1230   1.396       .  A
C1229      C1234   1.416       .  A
C1229      H1236   1.080       .  S
C1230      C1231   1.423       .  A
C1231      C1238   1.519       .  S
C1231      C1232   1.407       .  A
C1232      C1233   1.404       .  A
C1232      H1237   1.072       .  S
C1233      C1234   1.452       .  A
C1234      C1235   1.538       .  S
C1235      F1239   1.385       .  S
C1235      F1240   1.378       .  S
C1235      F1241   1.375       .  S
C1238      F1242   1.383       .  S
C1238      F1243   1.380       .  S
C1238      F1244   1.373       .  S
C1245      C1246   1.418       .  A
C1245      C1250   1.410       .  A
C1245      H1252   1.083       .  S
C1246      C1247   1.415       .  A
C1247      C1254   1.517       .  S
C1247      C1248   1.405       .  A
C1248      C1249   1.408       .  A
C1248      H1253   1.083       .  S
C1249      C1250   1.412       .  A
C1250      C1251   1.518       .  S
C1251      F1255   1.384       .  S
C1251      F1256   1.382       .  S
C1251      F1257   1.384       .  S
C1254      F1258   1.381       .  S
C1254      F1259   1.384       .  S
C1254      F1260   1.367       .  S
O1261     Ni1269   1.930       .  S
O1261      C1271   1.286       .  A
O1262     Ni1269   1.936   1_554  S
O1262      C1272   1.284       .  A
O1263     Ni1269   1.908       .  S
O1263      C1273   1.280       .  A
O1264     Ni1269   1.911   1_554  S
O1264      C1274   1.278       .  A
O1265     Ni1270   1.925       .  S
O1265      C1274   1.282       .  A
O1266     Ni1270   1.914   1_556  S
O1266      C1273   1.279       .  A
O1267     Ni1270   1.890       .  S
O1267      C1272   1.272       .  A
O1268     Ni1270   1.891   1_556  S
O1268      C1271   1.272       .  A
Ni1269    Ni1270   2.375   1_556  S
C1271      C1482   1.489       .  S
C1272      C1466   1.495       .  S
C1273      C1501   1.476       .  S
C1274      C1450   1.499       .  S
C1275      C1276   1.539       .  S
C1275      C1281   1.503       .  S
C1275      C1279   1.520       .  S
C1275      C1453   1.552       .  S
C1276      H1283   1.078       .  S
C1276      C1277   1.373       .  D
C1277      C1278   1.596       .  S
C1277      C1304   1.521       .  S
C1278      C1282   1.585       .  S
C1278      C1280   1.568       .  S
C1278      H1284   1.105       .  S
C1279      H1285   1.077       .  S
C1279      C1280   1.367       .  D
C1280      C1301   1.511       .  S
C1281      H1286   1.074       .  S
C1281      C1282   1.365       .  D
C1287      C1288   1.541       .  S
C1287      C1293   1.511       .  S
C1287      C1291   1.536       .  S
C1287      C1469   1.545       .  S
C1288      H1295   1.080       .  S
C1288      C1289   1.362       .  D
C1289      C1290   1.582       .  S
C1289      C1316   1.514       .  S
C1290      C1294   1.563       .  S
C1290      C1292   1.568       .  S
C1290      H1296   1.100       .  S
C1291      H1297   1.080       .  S
C1291      C1292   1.368       .  D
C1292      C1313   1.502       .  S
C1293      H1298   1.078       .  S
C1293      C1294   1.367       .  D
C1299      C1300   1.547       .  S
C1299      C1305   1.508       .  S
C1299      C1807   1.524       .  S
C1299      C1434   1.541       .  S
C1300      H1307   1.084       .  S
C1300      C1301   1.367       .  D
C1301      C1302   1.556       .  S
C1302      C1306   1.565       .  S
C1302      C1808   1.591       .  S
C1302      H1308   1.098       .  S
C1303      H1309   1.082       .  S
C1303      C1304   1.364       .  D
C1305      H1310   1.084       .  S
C1305      C1306   1.364       .  D
C1306      C1822   1.548       .  S
C1311      C1312   1.519       .  S
C1311      C1317   1.511       .  S
C1311      C1418   1.553       .  S
C1312      H1319   1.060       .  S
C1312      C1313   1.360       .  D
C1313      C1314   1.568       .  S
C1314      C1318   1.582       .  S
C1314      H1320   1.102       .  S
C1315      C1815   1.533       .  S
C1315      H1321   1.080       .  S
C1315      C1316   1.370       .  D
C1316      C1818   1.592       .  S
C1317      H1322   1.080       .  S
C1317      C1318   1.371       .  D
O1323      C1333   1.281       .  A
O1324     Ni1331   1.919   1_565  S
O1325     Ni1331   1.904   1_565  S
O1326      C1336   1.279       .  A
O1327      C1840   1.280       .  A
O1328     Ni1332   1.919       .  S
O1328      C1335   1.280       .  A
O1329     Ni1332   1.920       .  S
O1329      C1334   1.284       .  A
O1330      C1837   1.282       .  A
Ni1332    Ni1835   2.383       .  S
C1334      O1828   1.278       .  A
C1334      C1386   1.486       .  S
C1335      O1829   1.282       .  A
C1335      C1925   1.494       .  S
C1336      C1402   1.466       .  S
C1337      C1338   1.547       .  S
C1337      C1343   1.500       .  S
C1337      C1341   1.528       .  S
C1337      C1485   1.543       .  S
C1338      H1345   1.077       .  S
C1338      C1339   1.379       .  D
C1339      C1340   1.579       .  S
C1339      C1366   1.518       .  S
C1340      C1344   1.584       .  S
C1340      C1342   1.581       .  S
C1340      H1346   1.103       .  S
C1341      H1347   1.080       .  S
C1341      C1342   1.356       .  D
C1342      C1363   1.516       .  S
C1343      H1348   1.080       .  S
C1343      C1344   1.361       .  D
C1349      C1350   1.526       .  S
C1349      C1355   1.512       .  S
C1349      C1353   1.526       .  S
C1349      C1498   1.533       .  S
C1350      H1357   1.072       .  S
C1350      C1351   1.360       .  D
C1351      C1352   1.565       .  S
C1351      C1378   1.503       .  S
C1352      C1356   1.587       .  S
C1352      C1354   1.586       .  S
C1352      H1358   1.104       .  S
C1353      H1359   1.085       .  S
C1353      C1354   1.357       .  D
C1354      C1375   1.512       .  S
C1355      H1360   1.075       .  S
C1355      C1356   1.375       .  D
C1361      C1362   1.517       .  S
C1361      C1367   1.513       .  S
C1361      C1405   1.551       .  S
C1362      H1369   1.059       .  S
C1362      C1363   1.352       .  D
C1363      C1364   1.588       .  S
C1364      H1370   1.101       .  S
C1365      C1865   1.551       .  S
C1365      H1371   1.081       .  S
C1365      C1366   1.377       .  D
C1366      C1868   1.565       .  S
C1367      H1372   1.081       .  S
C1368      C1868   1.582       .  S
C1368      C1871   1.363       .  D
C1368      C1380   1.566       .  S
C1373      C1374   1.519       .  S
C1373      C1379   1.518       .  S
C1373      C1881   1.554       .  S
C1373      C1389   1.551       .  S
C1374      H1381   1.073       .  S
C1374      C1375   1.350       .  D
C1375      C1376   1.582       .  S
C1376      C1380   1.583       .  S
C1376      C1882   1.563       .  S
C1376      H1382   1.102       .  S
C1377      H1383   1.081       .  S
C1377      C1378   1.365       .  D
C1379      H1384   1.080       .  S
C1379      C1380   1.373       .  D
C1385      C1386   1.399       .  A
C1385      C1390   1.402       .  A
C1385      H1392   1.085       .  S
C1386      C1891   1.416       .  A
C1387      C1394   1.517       .  S
C1387      C1388   1.412       .  A
C1388      H1393   1.082       .  S
C1389      C1892   1.418       .  A
C1389      C1390   1.431       .  A
C1390      C1391   1.520       .  S
C1391      F1395   1.382   1_565  S
C1391      F1396   1.379       .  S
C1391      F1397   1.381       .  S
C1394      F1398   1.382       .  S
C1394      F1399   1.383       .  S
C1394      F1400   1.385       .  S
C1401      C1402   1.392       .  A
C1401      C1406   1.399       .  A
C1401      H1408   1.084       .  S
C1403      C1410   1.515       .  S
C1403      C1906   1.414       .  A
C1403      C1404   1.411       .  A
C1404      C1909   1.419       .  A
C1404      H1409   1.084       .  S
C1405      C1406   1.432       .  A
C1406      C1407   1.510       .  S
C1407      F1411   1.379       .  S
C1407      F1412   1.378       .  S
C1407      F1413   1.384       .  S
C1410      F1414   1.380       .  S
C1410      F1415   1.384       .  S
C1410      F1416   1.385       .  S
C1417      C1922   1.415       .  A
C1417      C1422   1.408       .  A
C1417      H1424   1.080       .  S
C1418      C1419   1.434       .  A
C1419      C1426   1.522       .  S
C1419      C1420   1.406       .  A
C1420      C1421   1.400       .  A
C1420      H1425   1.083       .  S
C1422      C1423   1.516       .  S
C1422      C1925   1.418       .  A
C1423      F1427   1.386       .  S
C1423      F1428   1.380       .  S
C1423      F1429   1.384       .  S
C1426      F1430   1.381       .  S
C1426      F1431   1.381       .  S
C1426      F1432   1.379   1_565  S
C1433      C1434   1.429       .  A
C1433      C1438   1.409       .  A
C1433      H1440   1.077       .  S
C1434      C1939   1.419       .  A
C1435      C1442   1.527       .  S
C1435      C1436   1.405       .  A
C1436      H1441   1.083       .  S
C1437      C1837   1.470       .  S
C1437      C1940   1.396       .  A
C1437      C1438   1.399       .  A
C1438      C1439   1.517       .  S
C1439      F1443   1.384       .  S
C1439      F1444   1.383       .  S
C1439      F1445   1.382       .  S
C1442      F1446   1.382       .  S
C1442      F1447   1.379       .  S
C1442      F1448   1.386       .  S
C1449      C1450   1.396       .  A
C1449      C1454   1.417       .  A
C1449      H1456   1.077       .  S
C1450      C1451   1.412       .  A
C1451      C1458   1.505       .  S
C1451      C1452   1.405       .  A
C1452      C1453   1.401       .  A
C1452      H1457   1.072       .  S
C1453      C1454   1.446       .  A
C1454      C1455   1.534       .  S
C1455      F1459   1.385       .  S
C1455      F1460   1.376       .  S
C1455      F1461   1.374       .  S
C1458      F1462   1.383       .  S
C1458      F1463   1.377       .  S
C1458      F1464   1.375       .  S
C1465      C1466   1.401       .  A
C1465      C1470   1.419       .  A
C1465      H1472   1.081       .  S
C1466      C1467   1.422       .  A
C1467      C1474   1.517       .  S
C1467      C1468   1.393       .  A
C1468      C1469   1.403       .  A
C1468      H1473   1.073       .  S
C1469      C1470   1.441       .  A
C1470      C1471   1.531       .  S
C1471      F1476   1.378       .  S
C1471      F1477   1.376       .  S
C1474      F1478   1.382       .  S
C1474      F1479   1.371       .  S
C1474      F1984   1.384       .  S
F1475      C1975   1.381       .  S
C1481      C1482   1.396       .  A
C1481      C1486   1.410       .  A
C1481      H1488   1.081       .  S
C1482      C1483   1.421       .  A
C1483      C1490   1.520       .  S
C1483      C1484   1.402       .  A
C1484      C1485   1.403       .  A
C1484      H1489   1.072       .  S
C1485      C1486   1.448       .  A
C1486      C1487   1.537       .  S
C1487      F1491   1.385       .  S
C1487      F1492   1.377       .  S
C1487      F1493   1.377       .  S
C1490      F1494   1.383       .  S
C1490      F1495   1.380       .  S
C1490      F1496   1.377       .  S
C1497      C1498   1.416       .  A
C1497      C1502   1.406       .  A
C1497      H1504   1.083       .  S
C1498      C1499   1.418       .  A
C1499      C1506   1.520       .  S
C1499      C1500   1.401       .  A
C1500      C1501   1.402       .  A
C1500      H1505   1.081       .  S
C1501      C1502   1.411       .  A
C1502      C1503   1.517       .  S
C1503      F1507   1.385       .  S
C1503      F1508   1.382       .  S
C1503      F1509   1.383       .  S
C1506      F1510   1.383       .  S
C1506      F1511   1.383       .  S
C1506      F1512   1.369       .  S
O1513     Ni1521   1.938       .  S
O1513      C1523   1.286       .  A
O1514     Ni1521   1.947   1_554  S
O1514      C1524   1.286       .  A
O1515     Ni1521   1.908       .  S
O1515      C1525   1.280       .  A
O1516     Ni1521   1.909   1_554  S
O1516      C1526   1.278       .  A
O1517     Ni1522   1.923       .  S
O1517      C1526   1.280       .  A
O1518     Ni1522   1.914   1_556  S
O1518      C1525   1.279       .  A
O1519     Ni1522   1.898       .  S
O1519      C1524   1.274       .  A
O1520     Ni1522   1.893   1_556  S
O1520      C1523   1.273       .  A
Ni1521    Ni1522   2.374   1_556  S
C1523      C1734   1.493       .  S
C1524      C1718   1.507       .  S
C1525      C1753   1.481       .  S
C1526      C1702   1.493       .  S
C1527      C1528   1.548       .  S
C1527      C1533   1.507       .  S
C1527      C1531   1.533       .  S
C1527      C1705   1.545       .  S
C1528      H1535   1.078       .  S
C1528      C1529   1.367       .  D
C1529      C1530   1.584       .  S
C1529      C1556   1.519       .  S
C1530      C1534   1.569       .  S
C1530      C1532   1.567       .  S
C1530      H1536   1.101       .  S
C1531      H1537   1.084       .  S
C1531      C1532   1.367       .  D
C1532      C1553   1.501       .  S
C1533      H1538   1.075       .  S
C1533      C1534   1.364       .  D
C1534      C1798   1.555   1_545  S
C1539      C1540   1.543       .  S
C1539      C1545   1.499       .  S
C1539      C1543   1.528       .  S
C1539      C1721   1.553       .  S
C1540      H1547   1.078       .  S
C1540      C1541   1.369       .  D
C1541      C1542   1.586       .  S
C1541      C1568   1.518       .  S
C1542      C1546   1.581       .  S
C1542      C1544   1.568       .  S
C1542      H1548   1.104       .  S
C1543      H1549   1.078       .  S
C1543      C1544   1.373       .  D
C1544      C1565   1.513       .  S
C1545      H1550   1.076       .  S
C1545      C1546   1.361       .  D
C1546      C1786   1.558       .  S
C1551      C1552   1.523       .  S
C1551      C1557   1.507       .  S
C1551      C1686   1.550       .  S
C1552      H1559   1.070       .  S
C1552      C1553   1.365       .  D
C1553      C1554   1.573       .  S
C1554      C1558   1.574       .  S
C1554      H1560   1.102       .  S
C1555      H1561   1.079       .  S
C1555      C1556   1.369       .  D
C1557      H1562   1.083       .  S
C1557      C1558   1.364       .  D
C1563      C1564   1.549       .  S
C1563      C1569   1.497       .  S
C1563      C1670   1.543       .  S
C1564      H1571   1.078       .  S
C1564      C1565   1.371       .  D
C1565      C1566   1.557       .  S
C1566      C1570   1.578       .  S
C1566      H1572   1.099       .  S
C1567      H1573   1.082       .  S
C1567      C1568   1.363       .  D
C1569      H1574   1.085       .  S
C1569      C1570   1.360       .  D
O1575     Ni1835   1.916   1_545  S
O1575      C1585   1.280       .  A
O1576     Ni1583   1.911       .  S
O1577     Ni1583   1.914       .  S
O1578     Ni1835   1.917   1_545  S
O1578      C1588   1.283       .  A
O1579     Ni1836   1.916   1_545  S
O1580     Ni1584   1.917       .  S
O1580      C1587   1.280       .  A
O1581     Ni1584   1.917       .  S
O1581      C1586   1.283   1_655  A
O1582     Ni1836   1.919   1_545  S
Ni1583     O1827   1.905       .  S
Ni1583     O1830   1.914       .  S
Ni1584     O1831   1.913       .  S
Ni1584     O1834   1.913       .  S
C1586      C1638   1.487       .  S
C1588      C1654   1.490       .  S
C1589      C1590   1.550       .  S
C1589      C1595   1.504       .  S
C1589      C1593   1.529       .  S
C1589      C1737   1.550       .  S
C1590      H1597   1.077       .  S
C1590      C1591   1.375       .  D
C1591      C1592   1.578       .  S
C1591      C1618   1.518       .  S
C1592      C1596   1.584       .  S
C1592      C1594   1.582       .  S
C1592      H1598   1.102       .  S
C1593      H1599   1.081       .  S
C1593      C1594   1.360       .  D
C1594      C1615   1.522       .  S
C1595      H1600   1.079       .  S
C1595      C1596   1.365       .  D
C1596      C1860   1.570   1_545  S
C1601      C1602   1.526       .  S
C1601      C1607   1.511       .  S
C1601      C1605   1.530       .  S
C1601      C1750   1.536       .  S
C1602      H1609   1.073       .  S
C1602      C1603   1.360       .  D
C1603      C1604   1.572       .  S
C1603      C1630   1.507       .  S
C1604      C1608   1.588       .  S
C1604      C1606   1.586       .  S
C1604      H1610   1.104       .  S
C1605      H1611   1.085       .  S
C1605      C1606   1.359       .  D
C1606      C1627   1.515       .  S
C1607      H1612   1.076       .  S
C1607      C1608   1.374       .  D
C1608      C1848   1.570       .  S
C1613      C1614   1.528       .  S
C1613      C1619   1.515       .  S
C1613      C1657   1.570       .  S
C1614      H1621   1.060       .  S
C1614      C1615   1.358       .  D
C1615      C1616   1.585       .  S
C1616      H1622   1.101       .  S
C1617      H1623   1.082       .  S
C1617      C1618   1.370       .  D
C1619      H1624   1.080       .  S
C1620      C1632   1.567       .  S
C1625      C1626   1.522   1_455  S
C1625      C1631   1.518       .  S
C1625      C1641   1.548       .  S
C1626      H1633   1.072       .  S
C1626      C1627   1.351       .  D
C1627      C1628   1.579   1_655  S
C1628      C1632   1.586       .  S
C1628      H1634   1.104       .  S
C1629      H1635   1.083       .  S
C1629      C1630   1.365       .  D
C1631      H1636   1.076       .  S
C1631      C1632   1.380       .  D
C1637      C1638   1.400   1_655  A
C1637      C1642   1.405       .  A
C1637      H1644   1.085       .  S
C1639      C1646   1.517       .  S
C1639      C1640   1.406       .  A
C1640      H1645   1.084       .  S
C1641      C1642   1.428   1_455  A
C1642      C1643   1.519       .  S
C1643      F1647   1.377       .  S
C1643      F1648   1.382       .  S
C1643      F1649   1.381       .  S
C1646      F1650   1.383       .  S
C1646      F1651   1.383       .  S
C1646      F1652   1.385       .  S
C1653      C1654   1.396       .  A
C1653      C1658   1.410       .  A
C1653      H1660   1.083       .  S
C1655      C1662   1.518       .  S
C1655      C1656   1.411       .  A
C1656      H1661   1.080       .  S
C1657      C1658   1.433       .  A
C1658      C1659   1.510       .  S
C1659      F1663   1.379       .  S
C1659      F1664   1.378       .  S
C1659      F1665   1.381   1_545  S
C1662      F1666   1.383       .  S
C1662      F1667   1.382       .  S
C1662      F1668   1.384       .  S
C1669      C1674   1.411       .  A
C1669      H1676   1.081       .  S
C1670      C1671   1.434       .  A
C1671      C1678   1.526       .  S
C1671      C1672   1.406       .  A
C1672      C1673   1.404       .  A
C1672      H1677   1.084       .  S
C1674      C1675   1.516       .  S
C1675      F1679   1.384       .  S
C1675      F1680   1.383       .  S
C1675      F1681   1.383       .  S
C1678      F1682   1.382       .  S
C1678      F1683   1.378       .  S
C1678      F1684   1.384       .  S
C1685      C1686   1.415   1_455  A
C1685      C1690   1.410       .  A
C1685      H1692   1.082       .  S
C1687      C1694   1.511       .  S
C1687      C1688   1.408       .  A
C1688      H1693   1.083       .  S
C1689      C1690   1.419   1_655  A
C1690      C1691   1.517       .  S
C1691      F1695   1.385       .  S
C1691      F1696   1.383       .  S
C1691      F1697   1.383       .  S
C1694      F1698   1.378   1_545  S
C1694      F1699   1.374       .  S
C1694      F1700   1.375   1_545  S
C1701      C1702   1.399       .  A
C1701      C1706   1.415       .  A
C1701      H1708   1.082       .  S
C1702      C1703   1.412       .  A
C1703      C1710   1.508       .  S
C1703      C1704   1.399       .  A
C1704      C1705   1.400       .  A
C1704      H1709   1.069       .  S
C1705      C1706   1.444       .  A
C1706      C1707   1.531       .  S
C1707      F1711   1.379       .  S
C1707      F1712   1.384       .  S
C1707      F1713   1.374       .  S
C1710      F1714   1.383       .  S
C1710      F1715   1.375       .  S
C1710      F1716   1.379       .  S
C1717      C1718   1.400       .  A
C1717      C1722   1.423       .  A
C1717      H1724   1.079       .  S
C1718      C1719   1.421       .  A
C1719      C1726   1.509       .  S
C1719      C1720   1.398       .  A
C1720      C1721   1.401       .  A
C1720      H1725   1.071       .  S
C1721      C1722   1.446       .  A
C1722      C1723   1.534       .  S
C1723      F1728   1.376       .  S
C1723      F1729   1.374       .  S
C1726      F1730   1.382       .  S
C1726      F1731   1.371       .  S
C1733      C1734   1.397       .  A
C1733      C1738   1.415       .  A
C1733      H1740   1.081       .  S
C1734      C1735   1.420       .  A
C1735      C1742   1.519       .  S
C1735      C1736   1.403       .  A
C1736      C1737   1.403       .  A
C1736      H1741   1.070       .  S
C1737      C1738   1.449       .  A
C1738      C1739   1.537       .  S
C1739      F1743   1.385       .  S
C1739      F1744   1.377       .  S
C1739      F1745   1.377       .  S
C1742      F1746   1.382       .  S
C1742      F1747   1.378       .  S
C1742      F1748   1.373   1_655  S
C1749      C1750   1.415       .  A
C1749      C1754   1.406       .  A
C1749      H1756   1.083       .  S
C1750      C1751   1.416       .  A
C1751      C1758   1.519       .  S
C1751      C1752   1.404       .  A
C1752      C1753   1.407       .  A
C1752      H1757   1.083       .  S
C1753      C1754   1.414       .  A
C1754      C1755   1.518       .  S
C1755      F1759   1.385       .  S
C1755      F1760   1.382       .  S
C1755      F1761   1.383       .  S
C1758      F1762   1.382       .  S
C1758      F1763   1.384       .  S
C1758      F1764   1.369       .  S
O1765     Ni1773   1.934       .  S
O1765      C1775   1.286       .  A
O1766     Ni1773   1.942   1_554  S
O1766      C1776   1.286       .  A
O1767     Ni1773   1.897       .  S
O1767      C1777   1.277       .  A
O1768     Ni1773   1.909   1_554  S
O1768      C1778   1.276       .  A
O1769     Ni1774   1.928       .  S
O1769      C1778   1.283       .  A
O1770     Ni1774   1.925   1_556  S
O1770      C1777   1.282       .  A
O1771     Ni1774   1.908       .  S
O1771      C1776   1.277       .  A
O1772     Ni1774   1.891   1_556  S
O1772      C1775   1.272       .  A
Ni1773    Ni1774   2.377   1_556  S
C1775      C1986   1.490       .  S
C1776      C1970   1.504       .  S
C1777      C2005   1.482       .  S
C1778      C1954   1.497       .  S
C1779      C1780   1.545       .  S
C1779      C1785   1.504       .  S
C1779      C1783   1.526       .  S
C1779      C1957   1.549       .  S
C1780      H1787   1.073       .  S
C1780      C1781   1.365       .  D
C1781      C1782   1.581       .  S
C1781      C1808   1.510       .  S
C1782      C1786   1.572       .  S
C1782      C1784   1.566       .  S
C1782      H1788   1.102       .  S
C1783      H1789   1.080       .  S
C1783      C1784   1.366       .  D
C1784      C1805   1.506       .  S
C1785      H1790   1.079       .  S
C1785      C1786   1.368       .  D
C1791      C1792   1.547       .  S
C1791      C1797   1.500       .  S
C1791      C1795   1.532       .  S
C1791      C1973   1.555       .  S
C1792      H1799   1.072       .  S
C1792      C1793   1.365       .  D
C1793      C1794   1.580       .  S
C1793      C1820   1.524       .  S
C1794      C1798   1.586       .  S
C1794      C1796   1.565       .  S
C1794      H1800   1.104       .  S
C1795      H1801   1.082       .  S
C1795      C1796   1.373       .  D
C1796      C1817   1.514       .  S
C1797      H1802   1.078       .  S
C1797      C1798   1.368       .  D
C1803      C1804   1.528       .  S
C1803      C1809   1.498       .  S
C1803      C1938   1.540       .  S
C1804      H1811   1.079       .  S
C1804      C1805   1.372       .  D
C1805      C1806   1.580       .  S
C1806      C1810   1.580       .  S
C1806      H1812   1.100       .  S
C1807      H1813   1.080       .  S
C1807      C1808   1.365       .  D
C1809      H1814   1.082       .  S
C1809      C1810   1.363       .  D
C1815      C1816   1.550       .  S
C1815      C1821   1.489       .  S
C1815      C1922   1.540       .  S
C1816      H1823   1.075       .  S
C1816      C1817   1.370       .  D
C1817      C1818   1.555       .  S
C1818      C1822   1.579       .  S
C1818      H1824   1.101       .  S
C1819      H1825   1.083       .  S
C1819      C1820   1.368       .  D
C1821      H1826   1.086       .  S
C1821      C1822   1.354       .  D
O1827      C1837   1.277       .  A
O1828     Ni1835   1.913       .  S
O1829     Ni1835   1.906       .  S
O1830      C1840   1.284       .  A
O1832     Ni1836   1.914       .  S
O1832      C1839   1.279       .  A
O1833     Ni1836   1.917       .  S
O1833      C1838   1.284   1_655  A
C1838      C1890   1.491       .  S
C1840      C1906   1.492       .  S
C1841      C1842   1.543       .  S
C1841      C1847   1.503       .  S
C1841      C1845   1.528       .  S
C1841      C1989   1.548       .  S
C1842      H1849   1.074       .  S
C1842      C1843   1.376       .  D
C1843      C1844   1.585       .  S
C1843      C1870   1.524       .  S
C1844      C1848   1.588       .  S
C1844      C1846   1.585       .  S
C1844      H1850   1.104       .  S
C1845      H1851   1.080       .  S
C1845      C1846   1.357       .  D
C1846      C1867   1.521       .  S
C1847      H1852   1.081       .  S
C1847      C1848   1.365       .  D
C1853      C1854   1.532       .  S
C1853      C1859   1.514       .  S
C1853      C1857   1.524       .  S
C1853      C2002   1.543       .  S
C1854      H1861   1.073       .  S
C1854      C1855   1.366       .  D
C1855      C1856   1.570       .  S
C1855      C1882   1.520       .  S
C1856      C1860   1.592       .  S
C1856      C1858   1.590       .  S
C1856      H1862   1.105       .  S
C1857      H1863   1.084       .  S
C1857      C1858   1.357       .  D
C1858      C1879   1.515       .  S
C1859      H1864   1.074       .  S
C1859      C1860   1.376       .  D
C1865      C1866   1.521       .  S
C1865      C1871   1.513       .  S
C1865      C1909   1.549       .  S
C1866      H1873   1.068       .  S
C1866      C1867   1.357       .  D
C1867      C1868   1.595       .  S
C1868      H1874   1.102       .  S
C1869      H1875   1.081       .  S
C1869      C1870   1.370       .  D
C1871      H1876   1.082       .  S
C1872      C1884   1.562       .  S
C1877      C1878   1.528   1_455  S
C1877      C1883   1.513       .  S
C1877      C1893   1.543       .  S
C1878      H1885   1.064       .  S
C1878      C1879   1.350       .  D
C1879      C1880   1.579   1_655  S
C1880      C1884   1.581       .  S
C1880      H1886   1.103       .  S
C1881      H1887   1.081       .  S
C1881      C1882   1.374       .  D
C1883      H1888   1.079       .  S
C1883      C1884   1.377       .  D
C1889      C1890   1.402   1_655  A
C1889      C1894   1.401       .  A
C1889      H1896   1.085       .  S
C1891      C1898   1.519       .  S
C1891      C1892   1.411       .  A
C1892      H1897   1.083       .  S
C1893      C1894   1.414   1_455  A
C1894      C1895   1.509       .  S
C1895      F1899   1.368   1_565  S
C1895      F1900   1.384       .  S
C1895      F1901   1.376       .  S
C1898      F1902   1.382       .  S
C1898      F1903   1.384       .  S
C1898      F1904   1.385       .  S
C1905      C1906   1.397       .  A
C1905      C1910   1.404       .  A
C1905      H1912   1.082       .  S
C1907      C1914   1.520       .  S
C1907      C1908   1.408       .  A
C1908      H1913   1.083       .  S
C1909      C1910   1.433       .  A
C1910      C1911   1.515       .  S
C1911      F1915   1.374       .  S
C1911      F1916   1.382       .  S
C1911      F1917   1.379       .  S
C1914      F1918   1.382       .  S
C1914      F1919   1.383       .  S
C1914      F1920   1.385       .  S
C1921      C1926   1.404       .  A
C1921      H1928   1.082       .  S
C1922      C1923   1.434       .  A
C1923      C1930   1.526       .  S
C1923      C1924   1.402       .  A
C1924      C1925   1.402       .  A
C1924      H1929   1.084       .  S
C1926      C1927   1.517       .  S
C1927      F1931   1.386       .  S
C1927      F1932   1.381       .  S
C1927      F1933   1.384       .  S
C1930      F1934   1.382       .  S
C1930      F1935   1.378       .  S
C1930      F1936   1.383       .  S
C1937      C1938   1.412   1_455  A
C1937      C1942   1.401       .  A
C1937      H1944   1.078       .  S
C1939      C1946   1.514       .  S
C1939      C1940   1.404       .  A
C1940      H1945   1.083       .  S
C1941      C1942   1.420   1_655  A
C1942      C1943   1.523       .  S
C1943      F1947   1.385       .  S
C1943      F1948   1.383       .  S
C1943      F1949   1.383       .  S
C1946      F1950   1.381       .  S
C1946      F1951   1.374       .  S
C1946      F1952   1.374       .  S
C1953      C1954   1.401       .  A
C1953      C1958   1.420       .  A
C1953      H1960   1.079       .  S
C1954      C1955   1.415       .  A
C1955      C1962   1.510       .  S
C1955      C1956   1.395       .  A
C1956      C1957   1.398       .  A
C1956      H1961   1.065       .  S
C1957      C1958   1.444       .  A
C1958      C1959   1.537       .  S
C1959      F1963   1.384       .  S
C1959      F1964   1.373       .  S
C1959      F1965   1.376       .  S
C1962      F1966   1.381       .  S
C1962      F1967   1.371       .  S
C1962      F1968   1.383       .  S
C1969      C1970   1.402       .  A
C1969      C1974   1.424       .  A
C1969      H1976   1.082       .  S
C1970      C1971   1.417       .  A
C1971      C1978   1.499       .  S
C1971      C1972   1.389       .  A
C1972      C1973   1.393       .  A
C1972      H1977   1.073       .  S
C1973      C1974   1.447       .  A
C1974      C1975   1.526       .  S
C1975      F1980   1.380       .  S
C1975      F1981   1.378       .  S
C1978      F1982   1.378       .  S
C1978      F1983   1.361       .  S
C1985      C1986   1.396       .  A
C1985      C1990   1.412       .  A
C1985      H1992   1.081       .  S
C1986      C1987   1.420       .  A
C1987      C1994   1.520       .  S
C1987      C1988   1.402       .  A
C1988      C1989   1.404       .  A
C1988      H1993   1.069       .  S
C1989      C1990   1.447       .  A
C1990      C1991   1.536       .  S
C1991      F1995   1.385       .  S
C1991      F1996   1.376       .  S
C1991      F1997   1.375       .  S
C1994      F1998   1.382       .  S
C1994      F1999   1.378       .  S
C1994      F2000   1.376   1_655  S
C2001      C2002   1.420       .  A
C2001      C2006   1.410       .  A
C2001      H2008   1.083       .  S
C2002      C2003   1.420       .  A
C2003      C2010   1.519       .  S
C2003      C2004   1.402       .  A
C2004      C2005   1.405       .  A
C2004      H2009   1.084       .  S
C2005      C2006   1.411       .  A
C2006      C2007   1.518       .  S
C2007      F2011   1.385       .  S
C2007      F2012   1.382       .  S
C2007      F2013   1.384       .  S
C2010      F2014   1.382       .  S
C2010      F2015   1.383       .  S
C2010      F2016   1.372       .  S
