geometry optimzed in LAMMPS
_audit_creation_date              2020-12-01 
_audit_creation_method            'lammps2cif' 
_symmetry_space_group_name_H-M    'P1' 
_symmetry_Int_Tables_number       1 
_symmetry_cell_setting            triclinic 
loop_ 
_symmetry_equiv_pos_as_xyz 
  x,y,z 
_cell_length_a                    32.08924689 
_cell_length_b                    32.25499513707515 
_cell_length_c                    41.07113895184696 
_cell_angle_alpha                 89.85779372963516 
_cell_angle_beta                  90.11364813075286 
_cell_angle_gamma                 120.18726375536143 
loop_ 
_atom_site_label 
_atom_site_type_symbol 
_atom_site_fract_x 
_atom_site_fract_y 
_atom_site_fract_z 
_atom_site_charge 
C1          C  0.33025785  0.16518878  0.84735463     0.86200
C2          C  0.27916654  0.13710843  0.86203501    -0.54100
C3          C  0.27810311  0.13780174  0.89527036     0.09100
C4          C  0.32840085  0.16464127  0.91099474     0.20000
C5          C  0.35354326  0.21527879  0.86272858    -0.54800
C6          C  0.35240441  0.21501967  0.89591578     0.09200
C7          C  0.35618672  0.14092951  0.86331002    -0.54300
C8          C  0.35561308  0.14112284  0.89650420     0.09800
H9          H  0.24669582  0.11707954  0.84760896     0.14300
H10         H  0.32789341  0.16462246  0.93803346     0.00000
H11         H  0.36970019  0.24817859  0.84852136     0.14600
H12         H  0.37249227  0.12378133  0.84988435     0.14400
C13         C  0.33669154  0.16737771  0.70355600     0.86200
C14         C  0.36268155  0.21779035  0.68841904    -0.54100
C15         C  0.36326255  0.21802094  0.65521899     0.09100
C16         C  0.33741774  0.16789677  0.63988324     0.20000
C17         C  0.28606567  0.14210366  0.68785383    -0.54800
C18         C  0.28666284  0.14302211  0.65466294     0.09200
C19         C  0.36059865  0.14080761  0.68830939    -0.54300
C20         C  0.36144417  0.14154949  0.65508066     0.09800
H21         H  0.37926988  0.25048830  0.70276218     0.14300
H22         H  0.33774769  0.16849735  0.61283805     0.00000
H23         H  0.25255484  0.12411270  0.70144457     0.14600
H24         H  0.37388033  0.12120758  0.70223736     0.14400
C25         C  0.16395043  0.32757708  0.20334768     0.86200
C26         C  0.13500942  0.27778491  0.18739152    -0.54100
C27         C  0.13575765  0.27840364  0.15418379     0.09100
C28         C  0.16253394  0.32931819  0.13974810     0.20000
C29         C  0.21406478  0.35127543  0.18755125    -0.54800
C30         C  0.21353351  0.35239742  0.15431678     0.09200
C31         C  0.13994164  0.35478657  0.18911655    -0.54300
C32         C  0.13909680  0.35561703  0.15582844     0.09800
H33         H  0.11368535  0.24475856  0.20083797     0.14300
H34         H  0.16183900  0.33040250  0.11276859     0.00000
H35         H  0.24717921  0.36593390  0.20161378     0.14600
H36         H  0.12481047  0.37176974  0.20396157     0.14400
C37         C  0.16738659  0.33100812  0.34721679     0.86200
C38         C  0.21820158  0.35579624  0.36185759    -0.54100
C39         C  0.21929197  0.35828597  0.39501915     0.09100
C40         C  0.16902774  0.33468825  0.41075003     0.20000
C41         C  0.14091231  0.28143706  0.36397852    -0.54800
C42         C  0.14199379  0.28326222  0.39720343     0.09200
C43         C  0.14268625  0.35719727  0.36172170    -0.54300
C44         C  0.14420850  0.36009134  0.39495742     0.09800
H45         H  0.25032761  0.36850174  0.34706085     0.14300
H46         H  0.17010426  0.33569811  0.43771520     0.00000
H47         H  0.12143789  0.24761899  0.35111846     0.14600
H48         H  0.12547905  0.37222853  0.34691316     0.14400
Zn49       Zn  0.03379295  0.46615069  0.00994191     1.49700
Zn50       Zn  0.43062511  0.46409989  0.00857076     1.49400
Zn51       Zn  0.99546550  0.99636177  0.07351578     1.49100
Zn52       Zn  0.02754103  0.06114388  0.00842530     1.49500
O53         O  0.99523749  0.99540593  0.02560636    -1.84500
O54         O  0.48538283  0.40525267  0.98345206    -0.75100
O55         O  0.38322579  0.44015005  0.04563854    -0.74900
O56         O  0.03317572  0.46434543  0.09165721    -0.74400
O57         O  0.41681504  0.40643315  0.98166293    -0.75100
O58         O  0.05804634  0.44363842  0.04732648    -0.74700
O59         O  0.42871501  0.46405713  0.09023994    -0.75300
O60         O  0.04985381  0.10921716  0.04493090    -0.74700
O61         O  0.41557913  0.00686101  0.98103148    -0.75400
O62         O  0.02949148  0.06494443  0.08999767    -0.74800
O63         O  0.48499874  0.07562075  0.97990289    -0.75300
O64         O  0.08558007  0.07505882  0.98091399    -0.75200
O65         O  0.08693494  0.00697426  0.98345075    -0.75000
C66         C  0.44194492  0.38749837  0.97390660     0.76800
C67         C  0.38750979  0.44304032  0.07650116     0.77300
C68         C  0.05512138  0.44518410  0.07815670     0.76300
C69         C  0.04835128  0.10565820  0.07583397     0.76600
C70         C  0.44092361  0.05030807  0.97167821     0.77800
C71         C  0.10489002  0.05006283  0.97375322     0.76800
Zn72       Zn  0.03400743  0.46578129  0.53875948     1.49700
Zn73       Zn  0.03517575  0.06588396  0.54313197     1.49400
Zn74       Zn  0.50165311  0.50070435  0.47723909     1.49100
Zn75       Zn  0.43595944  0.46724477  0.54163656     1.49500
O76         O  0.50225439  0.50032161  0.52511474    -1.84500
O77         O  0.09203895  0.00952087  0.56928261    -0.75100
O78         O  0.05775034  0.11410383  0.50652544    -0.74900
O79         O  0.03325571  0.46684028  0.45721155    -0.74400
O80         O  0.09371482  0.07900653  0.56947786    -0.75100
O81         O  0.05947003  0.44586323  0.50080748    -0.74700
O82         O  0.03415667  0.06932022  0.46182303    -0.75300
O83         O  0.38821158  0.43983779  0.50486604    -0.74700
O84         O  0.49182857  0.07767323  0.57206192    -0.75400
O85         O  0.43311727  0.46609840  0.46016785    -0.74800
O86         O  0.42100051  0.01019010  0.56944697    -0.75300
O87         O  0.42359835  0.41158020  0.57061317    -0.75200
O88         O  0.49084605  0.40824850  0.56688362    -0.75000
C89         C  0.11158299  0.05316609  0.57797402     0.76800
C90         C  0.05529393  0.11020163  0.47566149     0.77300
C91         C  0.05598478  0.44795389  0.47002614     0.76300
C92         C  0.39212774  0.44281923  0.47402102     0.76600
C93         C  0.44741301  0.05297411  0.57959155     0.77800
C94         C  0.44805682  0.39155737  0.57754915     0.76800
C95         C  0.26835994  0.35368139  0.44013989    -0.26600
C96         C  0.26451242  0.38013505  0.41432381    -0.14700
C97         C  0.30283666  0.42737145  0.40850631     0.35900
C98         C  0.34426544  0.44632360  0.42788228    -0.26100
C99         C  0.34806197  0.41999264  0.45376550    -0.15300
C100        C  0.30943300  0.37306443  0.45995859     0.37000
N101        N  0.31132085  0.34381016  0.48557202    -0.89600
H102        H  0.23917870  0.31755751  0.44492964     0.18100
H103        H  0.37322955  0.48261380  0.42327331     0.18100
N104        N  0.29977637  0.45804822  0.38450007    -0.88600
H105        H  0.31345806  0.36021514  0.50789413     0.35500
H106        H  0.34227294  0.34122846  0.48249384     0.40600
H107        H  0.26813587  0.45911972  0.38838024     0.40200
H108        H  0.29877280  0.44441571  0.36134308     0.35100
C109        C  0.07985815  0.38152601  0.40269443    -0.26600
C110        C  0.12296669  0.38467664  0.41358794    -0.14700
C111        C  0.14527610  0.41157537  0.44183822     0.35900
C112        C  0.12279782  0.43191711  0.45965163    -0.26100
C113        C  0.07933381  0.42806476  0.44910753    -0.15300
C114        C  0.05837697  0.40379951  0.41968968     0.37000
N115        N  0.01453360  0.40022547  0.40774823    -0.89600
H116        H  0.06238737  0.36108607  0.38099879     0.18100
H117        H  0.13995373  0.45158387  0.48169898     0.18100
N118        N  0.19153742  0.41982352  0.45204122    -0.88600
H119        H  0.00229087  0.37845002  0.38706618     0.35500
H120        H  0.02278775  0.43442838  0.40002078     0.40600
H121        H  0.21545971  0.45683622  0.45234187     0.40200
H122        H  0.18834981  0.40696613  0.47583634     0.35100
C123        C  0.07125808  0.19274821  0.46416093    -0.26600
C124        C  0.07777201  0.15428655  0.45555222    -0.14700
C125        C  0.10598457  0.15854424  0.42809115     0.35900
C126        C  0.12653543  0.20095099  0.40954115    -0.26100
C127        C  0.11954876  0.23927271  0.41782872    -0.15300
C128        C  0.09119990  0.23493099  0.44529898     0.37000
N129        N  0.08154654  0.27262482  0.45341691    -0.89600
H130        H  0.04940997  0.18930197  0.48520603     0.18100
H131        H  0.14874924  0.20440842  0.38871630     0.18100
N132        N  0.11451071  0.12022276  0.41956525    -0.88600
H133        H  0.06012384  0.26378750  0.47429396     0.35500
H134        H  0.06138731  0.27537391  0.43437522     0.40600
H135        H  0.13434351  0.11662334  0.43847373     0.40200
H136        H  0.13591659  0.12899853  0.39867979     0.35100
C137        C  0.16488954  0.29112834  0.29310050    -0.26600
C138        C  0.16875511  0.33085711  0.30992811    -0.14700
C139        C  0.18022453  0.37241181  0.29154215     0.35900
C140        C  0.17792148  0.37017165  0.25743709    -0.26100
C141        C  0.16719782  0.32799503  0.24062044    -0.15300
C142        C  0.16617451  0.29007128  0.25891994     0.37000
N143        N  0.16924487  0.25195279  0.24314927    -0.89600
H144        H  0.16357203  0.26160144  0.30644638     0.18100
H145        H  0.18556754  0.40219564  0.24404172     0.18100
N146        N  0.19558197  0.41744603  0.30725397    -0.88600
H147        H  0.16832302  0.22727794  0.26010777     0.35500
H148        H  0.20278805  0.26715819  0.23162321     0.40600
H149        H  0.23015922  0.44198939  0.29886978     0.40200
H150        H  0.17236845  0.42976289  0.30017798     0.35100
C151        C  0.08777799  0.23169103  0.10597037    -0.26600
C152        C  0.11340974  0.23389391  0.13423885    -0.16500
C153        C  0.11800600  0.19389746  0.14297263     0.35900
C154        C  0.09523328  0.15207550  0.12401171    -0.26100
C155        C  0.06966337  0.14986873  0.09575145    -0.15300
C156        C  0.06584089  0.19011227  0.08659972     0.37000
N157        N  0.03896450  0.18831523  0.05805948    -0.89600
H158        H  0.08407892  0.26219530  0.09927685     0.18100
H159        H  0.09879858  0.12149231  0.13074045     0.18100
N160        N  0.14695586  0.19630778  0.17047302    -0.88600
H161        H  0.03993388  0.22092746  0.05464843     0.35500
H162        H  0.00289240  0.16242776  0.06214660     0.40600
H163        H  0.18262195  0.22241146  0.16537846     0.40200
H164        H  0.14656083  0.16392557  0.17355517     0.35100
C165        C  0.30421189  0.37644921  0.08692130    -0.26600
C166        C  0.34342000  0.42057195  0.09668312    -0.14700
C167        C  0.33991385  0.44212402  0.12555305     0.35900
C168        C  0.29740452  0.41936540  0.14404186    -0.26100
C169        C  0.25820891  0.37506030  0.13436150    -0.15300
C170        C  0.26208275  0.35323685  0.10571449     0.37000
N171        N  0.22416059  0.30667340  0.09623164    -0.89600
H172        H  0.30674409  0.35919601  0.06500186     0.18100
H173        H  0.29482104  0.43682711  0.16582445     0.18100
N174        N  0.37887320  0.48773023  0.13569296    -0.88600
H175        H  0.21287466  0.30929797  0.07280438     0.35500
H176        H  0.23822684  0.28366871  0.09523826     0.40600
H177        H  0.38944664  0.48374621  0.15904132     0.40200
H178        H  0.36599573  0.51169297  0.13716374     0.35100
C179        C  0.14323454  0.40889477  0.11042790    -0.26600
C180        C  0.11749226  0.37935192  0.13677936    -0.14700
C181        C  0.07128424  0.37201017  0.14399267     0.35900
C182        C  0.05200320  0.39479382  0.12515885    -0.26100
C183        C  0.07755377  0.42389741  0.09860679    -0.15300
C184        C  0.12371478  0.43120323  0.09136210     0.37000
N185        N  0.14692094  0.95808040  0.06360022    -0.89600
H186        H  0.17890616  0.41508599  0.10477434     0.18100
H187        H  0.01625223  0.38846894  0.13068880     0.18100
N188        N  0.04299720  0.33991910  0.16955053    -0.88600
H189        H  0.15329387  0.93672244  0.04759253     0.35500
H190        H  0.18026583  0.98559026  0.07188788     0.40600
H191        H  0.01090853  0.31283853  0.15938208     0.40200
H192        H  0.03429438  0.35900658  0.18606818     0.35100
C193        C  0.37875848  0.06494367  0.59263442    -0.26600
C194        C  0.42561579  0.07480029  0.59990568    -0.14700
C195        C  0.45113419  0.10605907  0.62586551     0.35900
C196        C  0.42937454  0.12731269  0.64363954    -0.26100
C197        C  0.38289508  0.11816937  0.63584537    -0.15300
C198        C  0.35741789  0.08662444  0.61018018     0.37000
N199        N  0.30948412  0.07570927  0.60225402    -0.89600
H200        H  0.35885565  0.04092268  0.57280451     0.18100
H201        H  0.44890327  0.15151134  0.66347180     0.18100
N202        N  0.49868096  0.11564541  0.63430612    -0.88600
H203        H  0.28654611  0.03867347  0.60452535     0.35500
H204        H  0.30910088  0.08506960  0.57791062     0.40600
H205        H  0.00466692  0.09828468  0.63771037     0.40200
H206        H  0.01818998  0.15469771  0.64551366     0.35100
C207        C  0.36967591  0.29543346  0.63939345    -0.26600
C208        C  0.38586289  0.26267557  0.63572882    -0.14700
C209        C  0.42275588  0.27233123  0.61324571     0.35900
C210        C  0.44280097  0.31480829  0.59475015    -0.26100
C211        C  0.42625340  0.34754572  0.59800769    -0.15300
C212        C  0.38910059  0.33741716  0.62055929     0.37000
N213        N  0.37137566  0.36988919  0.62482407    -0.89600
H214        H  0.34124770  0.28802094  0.65666451     0.18100
H215        H  0.47112401  0.32208474  0.57743951     0.18100
N216        N  0.43999819  0.23920011  0.60953552    -0.88600
H217        H  0.37626843  0.38058973  0.64920664     0.35500
H218        H  0.33435445  0.35127080  0.61999477     0.40600
H219        H  0.45583088  0.23821242  0.63158212     0.40200
H220        H  0.46712232  0.25146458  0.59190800     0.35100
C221        C  0.21171735  0.07056894  0.63660296    -0.26600
C222        C  0.24222257  0.12031399  0.63491708    -0.14700
C223        C  0.23017679  0.14790680  0.61464377     0.35900
C224        C  0.18731514  0.12504136  0.59643136    -0.26100
C225        C  0.15649897  0.07497124  0.59776900    -0.15300
C226        C  0.16949298  0.04750612  0.61804316     0.37000
N227        N  0.14047689  0.99642088  0.62087329    -0.89600
H228        H  0.22121738  0.04938164  0.65217404     0.18100
H229        H  0.17813906  0.14651718  0.58093499     0.18100
N230        N  0.26121247  0.19906142  0.61298097    -0.88600
H231        H  0.13922392  0.98094625  0.59830928     0.35500
H232        H  0.10567326  0.98756820  0.62792556     0.40600
H233        H  0.26130089  0.21295664  0.63596860     0.40200
H234        H  0.24738424  0.21415747  0.59674750     0.35100
C235        C  0.30038310  0.17262128  0.75718702    -0.26600
C236        C  0.33704621  0.16916652  0.74085204    -0.14700
C237        C  0.37619972  0.17370048  0.75967727     0.35900
C238        C  0.37269281  0.17146546  0.79380581    -0.26100
C239        C  0.33242288  0.16786131  0.81008734    -0.15300
C240        C  0.29845233  0.17349153  0.79133508     0.37000
N241        N  0.26282212  0.18132702  0.80679613    -0.89600
H242        H  0.27369560  0.17624285  0.74332203     0.18100
H243        H  0.40274001  0.17443973  0.80768242     0.18100
N244        N  0.42007146  0.18215373  0.74437096    -0.88600
H245        H  0.24047330  0.18431772  0.78954124     0.35500
H246        H  0.28098567  0.21428114  0.81884028     0.40600
H247        H  0.43543401  0.21557791  0.73285673     0.40200
H248        H  0.44508696  0.18444367  0.76167183     0.35100
C249        C  0.35806027  0.06859106  0.91392959    -0.26600
C250        C  0.37727098  0.11829403  0.91622358    -0.14700
C251        C  0.41814704  0.14561310  0.93589569     0.35900
C252        C  0.43848426  0.12275267  0.95325482    -0.26100
C253        C  0.41885285  0.07274449  0.95163016    -0.15300
C254        C  0.37847740  0.04545033  0.93129939     0.37000
N255        N  0.35890837  0.99464050  0.92782279    -0.89600
H256        H  0.32713115  0.04784481  0.89833403     0.18100
H257        H  0.46963845  0.14435114  0.96847095     0.18100
N258        N  0.44046215  0.19671978  0.93807176    -0.88600
H259        H  0.38517659  0.98950338  0.91658223     0.35500
H260        H  0.32910334  0.98000321  0.91221640     0.40600
H261        H  0.41553408  0.20512299  0.94772326     0.40200
H262        H  0.44970466  0.21109079  0.91459580     0.35100
C263        C  0.42294693  0.29378790  0.91044317    -0.26600
C264        C  0.37437097  0.25950621  0.91549721    -0.14700
C265        C  0.34785085  0.26746375  0.93949851     0.35900
C266        C  0.37070728  0.30970561  0.95811811    -0.26100
C267        C  0.41974313  0.34364324  0.95361619    -0.15300
C268        C  0.44604492  0.33525789  0.92943075     0.37000
N269        N  0.49588576  0.36850319  0.92303785    -0.89600
H270        H  0.44344638  0.28771413  0.89203336     0.18100
H271        H  0.35027799  0.31592667  0.97649312     0.18100
N272        N  0.29776724  0.23300513  0.94455898    -0.88600
H273        H  0.51611680  0.37074179  0.94360409     0.35500
H274        H  0.49996853  0.40218381  0.91817628     0.40600
H275        H  0.27928229  0.23230540  0.92341648     0.40200
H276        H  0.28362594  0.24397517  0.96338373     0.35100
C277        C  0.23007443  0.08728120  0.94190619    -0.26600
C278        C  0.23284714  0.11460218  0.91453377    -0.14700
C279        C  0.19323958  0.12053019  0.90658654     0.35900
C280        C  0.15195714  0.09923579  0.92643738    -0.26100
C281        C  0.14904721  0.07148364  0.95361966    -0.15300
C282        C  0.18862779  0.06528015  0.96123064     0.37000
N283        N  0.18844767  0.03807803  0.98892837    -0.89600
H284        H  0.26020970  0.08245519  0.94813851     0.18100
H285        H  0.12167309  0.10396435  0.92051943     0.18100
N286        N  0.19514795  0.14845890  0.87868140    -0.88600
H287        H  0.16142000  0.00235211  0.98587148     0.35500
H288        H  0.18103957  0.05183548  0.00974547     0.40600
H289        H  0.22230555  0.18388517  0.88268916     0.40200
H290        H  0.16295538  0.14892674  0.87618752     0.35100
C291        C  0.33230865  0.66573858  0.84663517     0.86200
C292        C  0.28207827  0.63783999  0.86256372    -0.54100
C293        C  0.28282835  0.63997237  0.89573153     0.09100
C294        C  0.33369115  0.66766870  0.91026519     0.20000
C295        C  0.35595350  0.71645210  0.86114581    -0.54800
C296        C  0.35646867  0.71741311  0.89435567     0.09200
C297        C  0.35951852  0.64255969  0.86230011    -0.54300
C298        C  0.36059348  0.64407880  0.89552411     0.09800
H299        H  0.24874599  0.61699633  0.84914037     0.14300
H300        H  0.33419133  0.66841169  0.93729927     0.00000
H301        H  0.37086035  0.74877655  0.84638169     0.14600
H302        H  0.37528940  0.62506904  0.84866270     0.14400
C303        C  0.33355469  0.66487759  0.70267911     0.86200
C304        C  0.35928889  0.71551931  0.68792270    -0.54100
C305        C  0.35982731  0.71632880  0.65473395     0.09100
C306        C  0.33390025  0.66645131  0.63903721     0.20000
C307        C  0.28284254  0.63968104  0.68713458    -0.54800
C308        C  0.28320918  0.64121509  0.65396339     0.09200
C309        C  0.35767349  0.63880826  0.68689165    -0.54300
C310        C  0.35830887  0.64008009  0.65362292     0.09800
H311        H  0.37614927  0.74796191  0.70253066     0.14300
H312        H  0.33401702  0.66751524  0.61200741     0.00000
H313        H  0.24939751  0.62125383  0.70075642     0.14600
H314        H  0.37178542  0.61971515  0.70055879     0.14400
C315        C  0.16530196  0.83053434  0.20440117     0.86200
C316        C  0.13650697  0.78025242  0.18911545    -0.54100
C317        C  0.13682841  0.77997672  0.15587114     0.09100
C318        C  0.16312519  0.83063542  0.14085407     0.20000
C319        C  0.21520880  0.85405407  0.18840915    -0.54800
C320        C  0.21434289  0.85425712  0.15518137     0.09200
C321        C  0.14075796  0.85699757  0.18985590    -0.54300
C322        C  0.13931740  0.85693422  0.15660046     0.09800
H323        H  0.11595430  0.74767834  0.20318123     0.14300
H324        H  0.16243097  0.83120630  0.11387246     0.00000
H325        H  0.24844634  0.86897787  0.20235445     0.14600
H326        H  0.12558274  0.87409905  0.20451318     0.14400
C327        C  0.16658886  0.83433240  0.34793660     0.86200
C328        C  0.21702187  0.85806151  0.36311046    -0.54100
C329        C  0.21729236  0.85954474  0.39627334     0.09100
C330        C  0.16679353  0.83595522  0.41147753     0.20000
C331        C  0.13904887  0.78432371  0.36389598    -0.54800
C332        C  0.13941889  0.78486767  0.39717653     0.09200
C333        C  0.14204095  0.86055748  0.36262243    -0.54300
C334        C  0.14303048  0.86245619  0.39586221     0.09800
H335        H  0.24955336  0.87129526  0.34866125     0.14300
H336        H  0.16767909  0.83667574  0.43843828     0.00000
H337        H  0.11963306  0.75119575  0.35024427     0.14600
H338        H  0.12512744  0.87615676  0.34809106     0.14400
Zn339      Zn  0.02953969  0.96313692  0.01058668     1.49700
Zn340      Zn  0.43063856  0.96368770  0.00875811     1.49400
Zn341      Zn  0.99997029  0.49900471  0.07346330     1.49100
Zn342      Zn  0.03275126  0.56467356  0.00889496     1.49500
O343        O  0.00007943  0.49869497  0.02556751    -1.84500
O344        O  0.48822506  0.90812654  0.98178537    -0.75100
O345        O  0.38354186  0.93859223  0.04609949    -0.74900
O346        O  0.02977710  0.96279369  0.09226717    -0.74400
O347        O  0.41842557  0.90693692  0.98142585    -0.75100
O348        O  0.05500951  0.94222123  0.04811281    -0.74700
O349        O  0.42962304  0.96448588  0.09038837    -0.75300
O350        O  0.05447523  0.61185263  0.04579005    -0.74700
O351        O  0.41738324  0.50841234  0.98085318    -0.75400
O352        O  0.03447309  0.56707545  0.09056248    -0.74800
O353        O  0.48718876  0.57683124  0.98088473    -0.75300
O354        O  0.09153325  0.57909440  0.98229946    -0.75200
O355        O  0.09216392  0.51060249  0.98378649    -0.75000
C356        C  0.44449817  0.88950051  0.97265578     0.76800
C357        C  0.38821876  0.94222196  0.07693749     0.77300
C358        C  0.05229395  0.94408189  0.07892779     0.76300
C359        C  0.05307419  0.60793781  0.07666602     0.76600
C360        C  0.44324724  0.55211896  0.97219836     0.77800
C361        C  0.11077360  0.55412654  0.97492242     0.76800
Zn362      Zn  0.03477588  0.96669907  0.54143525     1.49700
Zn363      Zn  0.03368296  0.56446800  0.54042275     1.49400
Zn364      Zn  0.49887659  0.00008676  0.47856979     1.49100
Zn365      Zn  0.43468463  0.96596042  0.54291701     1.49500
O366        O  0.50072682  0.99945732  0.52627853    -1.84500
O367        O  0.09078899  0.50883528  0.56699282    -0.75100
O368        O  0.05571587  0.61254079  0.50394651    -0.74900
O369        O  0.03354069  0.96834559  0.45992614    -0.74400
O370        O  0.09190444  0.57809248  0.56702119    -0.75100
O371        O  0.06051086  0.94766581  0.50332901    -0.74700
O372        O  0.03307954  0.56815233  0.45906850    -0.75300
O373        O  0.38605005  0.93941948  0.50657018    -0.74700
O374        O  0.49245377  0.57952228  0.57011307    -0.75400
O375        O  0.43031643  0.96618346  0.46167236    -0.74800
O376        O  0.42150085  0.51233278  0.56701768    -0.75300
O377        O  0.42288882  0.91029368  0.57124192    -0.75200
O378        O  0.49040760  0.90737339  0.56753576    -0.75000
C379        C  0.10969043  0.55236431  0.57587500     0.76800
C380        C  0.05349347  0.60894257  0.47306437     0.77300
C381        C  0.05674545  0.94988564  0.47260538     0.76300
C382        C  0.38950683  0.94298221  0.47572742     0.76600
C383        C  0.44775861  0.55525304  0.57703850     0.77800
C384        C  0.44758151  0.89056699  0.57816675     0.76800
C385        C  0.26589195  0.85438459  0.44145620    -0.26600
C386        C  0.26198874  0.88136686  0.41604421    -0.14700
C387        C  0.29968828  0.92912774  0.41106285     0.35900
C388        C  0.34105507  0.94786702  0.43048497    -0.26100
C389        C  0.34519565  0.92079392  0.45572222    -0.15300
C390        C  0.30680783  0.87357460  0.46140832     0.37000
N391        N  0.30885357  0.84383102  0.48659052    -0.89600
H392        H  0.23695709  0.81797166  0.44575022     0.18100
H393        H  0.36972428  0.98445963  0.42639619     0.18100
N394        N  0.29597261  0.96039786  0.38787715    -0.88600
H395        H  0.31084350  0.85968507  0.50911975     0.35500
H396        H  0.33994918  0.84156809  0.48329887     0.40600
H397        H  0.26405481  0.96074107  0.39224514     0.40200
H398        H  0.29498875  0.94770245  0.36440480     0.35100
C399        C  0.07900556  0.88381384  0.40468076    -0.26600
C400        C  0.12262420  0.88742182  0.41472405    -0.14700
C401        C  0.14615218  0.91489294  0.44253906     0.35900
C402        C  0.12421289  0.93522521  0.46095942    -0.26100
C403        C  0.07989591  0.93028599  0.45145967    -0.15300
C404        C  0.05780170  0.90538417  0.42258170     0.37000
N405        N  0.01295377  0.90038471  0.41196743    -0.89600
H406        H  0.06052838  0.86315508  0.38325642     0.18100
H407        H  0.14224535  0.95548215  0.48263708     0.18100
N408        N  0.19297231  0.92356510  0.45165484    -0.88600
H409        H  0.98756594  0.86379310  0.41058743     0.35500
H410        H  0.01787598  0.91482958  0.38852682     0.40600
H411        H  0.21673481  0.96061371  0.45155292     0.40200
H412        H  0.19100577  0.91111906  0.47545025     0.35100
C413        C  0.07197068  0.69288671  0.46428603    -0.26600
C414        C  0.07518240  0.65340046  0.45325793    -0.14700
C415        C  0.09943735  0.65718635  0.42382837     0.35900
C416        C  0.12007305  0.70039666  0.40618719    -0.26100
C417        C  0.11658618  0.73990897  0.41699174    -0.15300
C418        C  0.09148414  0.73572245  0.44618268     0.37000
N419        N  0.08452350  0.77420067  0.45690996    -0.89600
H420        H  0.05292907  0.68980823  0.48674056     0.18100
H421        H  0.13976604  0.70345431  0.38407274     0.18100
N422        N  0.10397782  0.61757822  0.41229505    -0.88600
H423        H  0.06537575  0.76534454  0.47881823     0.35500
H424        H  0.06310357  0.77850425  0.43955660     0.40600
H425        H  0.12521749  0.61194230  0.42905165     0.40200
H426        H  0.12241474  0.62605740  0.39010843     0.35100
C427        C  0.16856143  0.79637141  0.29418648    -0.26600
C428        C  0.16895620  0.83472712  0.31073683    -0.14700
C429        C  0.17882810  0.87574785  0.29226942     0.35900
C430        C  0.17719873  0.87339089  0.25819391    -0.26100
C431        C  0.16887151  0.83180584  0.24159765    -0.15300
C432        C  0.17043999  0.79536113  0.26003851     0.37000
N433        N  0.17616256  0.75870490  0.24438597    -0.89600
H434        H  0.16891998  0.76783917  0.30782188     0.18100
H435        H  0.18361278  0.90494293  0.24470630     0.18100
N436        N  0.19228746  0.92048381  0.30779935    -0.88600
H437        H  0.17695195  0.73502834  0.26147400     0.35500
H438        H  0.20974574  0.77553316  0.23284509     0.40600
H439        H  0.22663661  0.94595337  0.29957975     0.40200
H440        H  0.16813730  0.93147165  0.30039273     0.35100
C441        C  0.09177962  0.73370760  0.10678343    -0.26600
C442        C  0.11477151  0.73512726  0.13618894    -0.16500
C443        C  0.11785590  0.69451529  0.14575366     0.35900
C444        C  0.09621737  0.65305016  0.12636614    -0.26100
C445        C  0.07361122  0.65186843  0.09685657    -0.15300
C446        C  0.07149038  0.69274530  0.08689608     0.37000
N447        N  0.04812915  0.69234505  0.05688562    -0.89600
H448        H  0.08899595  0.76448427  0.09941037     0.18100
H449        H  0.09850085  0.62198009  0.13377373     0.18100
N450        N  0.14429150  0.69591093  0.17444555    -0.88600
H451        H  0.05036635  0.72544001  0.05291428     0.35500
H452        H  0.01149944  0.66700341  0.05927451     0.40600
H453        H  0.18049469  0.72156786  0.17054076     0.40200
H454        H  0.14292815  0.66314184  0.17800605     0.35100
C455        C  0.30493058  0.87552131  0.08803535    -0.26600
C456        C  0.34435069  0.91976917  0.09743876    -0.14700
C457        C  0.34105750  0.94198669  0.12602287     0.35900
C458        C  0.29850013  0.92004035  0.14443937    -0.26100
C459        C  0.25897799  0.87577090  0.13510251    -0.15300
C460        C  0.26262854  0.85280899  0.10688114     0.37000
N461        N  0.22410106  0.80601003  0.09793142    -0.89600
H462        H  0.30762757  0.85803428  0.06629943     0.18100
H463        H  0.29612673  0.93819567  0.16591307     0.18100
N464        N  0.38027590  0.98759512  0.13590279    -0.88600
H465        H  0.23245699  0.79426712  0.07652500     0.35500
H466        H  0.22105832  0.78213862  0.11629658     0.40600
H467        H  0.39065180  0.98390627  0.15938542     0.40200
H468        H  0.36775994  0.01187924  0.13695348     0.35100
C469        C  0.14081468  0.90728828  0.10996694    -0.26600
C470        C  0.11672595  0.87978336  0.13744946    -0.14700
C471        C  0.07151273  0.87421022  0.14593144     0.35900
C472        C  0.05170337  0.89660165  0.12716159    -0.26100
C473        C  0.07557994  0.92357725  0.09944893    -0.15300
C474        C  0.12074033  0.92917746  0.09100120     0.37000
N475        N  0.15134987  0.46220527  0.06514158    -0.89600
H476        H  0.17576953  0.91237987  0.10335303     0.18100
H477        H  0.01673243  0.89154239  0.13369378     0.18100
N478        N  0.04464769  0.84433771  0.17278558    -0.88600
H479        H  0.15958962  0.44241690  0.04893127     0.35500
H480        H  0.18373307  0.48966692  0.07471155     0.40600
H481        H  0.01147453  0.81720440  0.16397348     0.40200
H482        H  0.03798235  0.86516125  0.18910154     0.35100
C483        C  0.37879142  0.56756940  0.58927418    -0.26600
C484        C  0.42559782  0.57742921  0.59687725    -0.14700
C485        C  0.45037359  0.60819621  0.62324428     0.35900
C486        C  0.42761053  0.62805568  0.64148839    -0.26100
C487        C  0.38089949  0.61827894  0.63373191    -0.15300
C488        C  0.35650004  0.58801002  0.60725453     0.37000
N489        N  0.30859260  0.57691857  0.59903063    -0.89600
H490        H  0.35950778  0.54417030  0.56903754     0.18100
H491        H  0.44652549  0.65160493  0.66173814     0.18100
N492        N  0.49814791  0.61854011  0.63173852    -0.88600
H493        H  0.28596191  0.53973640  0.60040354     0.35500
H494        H  0.30875208  0.58748375  0.57492272     0.40600
H495        H  0.99943972  0.58812987  0.63716646     0.40200
H496        H  0.01497674  0.64438752  0.64738084     0.35100
C497        C  0.37103014  0.79654695  0.64136151    -0.26600
C498        C  0.38346275  0.76132071  0.63559898    -0.14700
C499        C  0.41782705  0.76900998  0.61146683     0.35900
C500        C  0.43881031  0.81177864  0.59330826    -0.26100
C501        C  0.42574568  0.84674850  0.59859554    -0.15300
C502        C  0.39153946  0.83893539  0.62294453     0.37000
N503        N  0.37804965  0.87423531  0.62942483    -0.89600
H504        H  0.34465374  0.79077041  0.65991455     0.18100
H505        H  0.46500664  0.81753974  0.57463505     0.18100
N506        N  0.43169260  0.73364400  0.60577068    -0.88600
H507        H  0.38588056  0.88451207  0.65381306     0.35500
H508        H  0.34077069  0.85819468  0.62621862     0.40600
H509        H  0.44887672  0.73145658  0.62681538     0.40200
H510        H  0.45700078  0.74454048  0.58697737     0.35100
C511        C  0.20590504  0.56980627  0.63777749    -0.26600
C512        C  0.23862238  0.61894203  0.63431508    -0.14700
C513        C  0.22862569  0.64634351  0.61233469     0.35900
C514        C  0.18623646  0.62368755  0.59362841    -0.26100
C515        C  0.15370547  0.57412316  0.59642099    -0.15300
C516        C  0.16384663  0.54704927  0.61905051     0.37000
N517        N  0.13179878  0.49681127  0.62427165    -0.89600
H518        H  0.21347969  0.54880832  0.65490760     0.18100
H519        H  0.17876230  0.64484540  0.57659703     0.18100
N520        N  0.26119282  0.69712730  0.60948075    -0.88600
H521        H  0.12971141  0.47825898  0.60295711     0.35500
H522        H  0.09764742  0.49126043  0.63006858     0.40600
H523        H  0.26146567  0.71269591  0.63184047     0.40200
H524        H  0.24861508  0.71210325  0.59220216     0.35100
C525        C  0.29715741  0.66796882  0.75689887    -0.26600
C526        C  0.33445362  0.66637435  0.73998932    -0.14700
C527        C  0.37499527  0.67321909  0.75820543     0.35900
C528        C  0.37283864  0.67183188  0.79239411    -0.26100
C529        C  0.33246473  0.66684301  0.80932288    -0.15300
C530        C  0.29648904  0.66979775  0.79104777     0.37000
N531        N  0.26029248  0.67634806  0.80691527    -0.89600
H532        H  0.26917154  0.66994869  0.74351333     0.18100
H533        H  0.40392339  0.67649228  0.80583226     0.18100
N534        N  0.41882864  0.68300997  0.74216610    -0.88600
H535        H  0.23650826  0.67748819  0.78999002     0.35500
H536        H  0.27778545  0.70979420  0.81837215     0.40600
H537        H  0.43265721  0.71609145  0.73036120     0.40200
H538        H  0.44490490  0.68674910  0.75906496     0.35100
C539        C  0.36324550  0.57174025  0.91282850    -0.26600
C540        C  0.38228465  0.62137033  0.91530810    -0.14700
C541        C  0.42196295  0.64837656  0.93608267     0.35900
C542        C  0.44148080  0.62520520  0.95406698    -0.26100
C543        C  0.42195193  0.57522973  0.95210806    -0.15300
C544        C  0.38255147  0.54846061  0.93103641     0.37000
N545        N  0.36267727  0.49781287  0.92741116    -0.89600
H546        H  0.33302206  0.55085693  0.89671056     0.18100
H547        H  0.47185469  0.64646140  0.96997483     0.18100
N548        N  0.44396635  0.69942444  0.93872596    -0.88600
H549        H  0.36536588  0.49078362  0.90290099     0.35500
H550        H  0.32609832  0.48083661  0.93344877     0.40600
H551        H  0.41862697  0.70758759  0.94790592     0.40200
H552        H  0.45420965  0.71435948  0.91545609     0.35100
C553        C  0.42589407  0.79805499  0.90731688    -0.26600
C554        C  0.37811345  0.76233396  0.91341494    -0.14700
C555        C  0.35213573  0.76899034  0.93839165     0.35900
C556        C  0.37445681  0.81090642  0.95717311    -0.26100
C557        C  0.42281341  0.84617414  0.95185759    -0.15300
C558        C  0.44866827  0.83952839  0.92642378     0.37000
N559        N  0.49758894  0.87453302  0.91891570    -0.89600
H560        H  0.44606494  0.79310392  0.88808507     0.18100
H561        H  0.35399763  0.81554915  0.97634538     0.18100
N562        N  0.30280203  0.73363237  0.94437141    -0.88600
H563        H  0.51937935  0.87774292  0.93878596     0.35500
H564        H  0.49964844  0.90749820  0.91471927     0.40600
H565        H  0.28192720  0.74997128  0.94169307     0.40200
H566        H  0.29984148  0.72209396  0.96850517     0.35100
C567        C  0.23524874  0.58947006  0.94245595    -0.26600
C568        C  0.23862307  0.61824462  0.91585177    -0.14700
C569        C  0.20057119  0.62707597  0.90926047     0.35900
C570        C  0.15939155  0.60599155  0.92912747    -0.26100
C571        C  0.15532147  0.57601029  0.95521292    -0.15300
C572        C  0.19398371  0.56793177  0.96197703     0.37000
N573        N  0.19305997  0.53923701  0.98896641    -0.89600
H574        H  0.26465024  0.58308710  0.94782222     0.18100
H575        H  0.13005904  0.61256439  0.92401955     0.18100
N576        N  0.20415966  0.65789529  0.88273604    -0.88600
H577        H  0.16528542  0.50394892  0.98545679     0.35500
H578        H  0.18639846  0.55268275  0.01024251     0.40600
H579        H  0.23266457  0.69231446  0.88789268     0.40200
H580        H  0.17306230  0.66055214  0.88115318     0.35100
C581        C  0.83215741  0.16634064  0.84747682     0.86200
C582        C  0.78111223  0.13905173  0.86232623    -0.54100
C583        C  0.78034013  0.13972106  0.89557365     0.09100
C584        C  0.83072800  0.16569179  0.91111996     0.20000
C585        C  0.85632679  0.21644378  0.86289650    -0.54800
C586        C  0.85554743  0.21622880  0.89612530     0.09200
C587        C  0.85752557  0.14136265  0.86324823    -0.54300
C588        C  0.85688322  0.14135810  0.89641108     0.09800
H589        H  0.74844161  0.11963382  0.84799505     0.14300
H590        H  0.83066666  0.16555992  0.93816130     0.00000
H591        H  0.87267049  0.24931485  0.84865903     0.14600
H592        H  0.87320165  0.12365112  0.84977553     0.14400
C593        C  0.83675453  0.16769360  0.70362958     0.86200
C594        C  0.86280644  0.21806131  0.68843708    -0.54100
C595        C  0.86309046  0.21822627  0.65522046     0.09100
C596        C  0.83676107  0.16803525  0.63994996     0.20000
C597        C  0.78592475  0.14262843  0.68817941    -0.54800
C598        C  0.78618005  0.14345524  0.65496744     0.09200
C599        C  0.86033042  0.14092399  0.68816390    -0.54300
C600        C  0.86081785  0.14170717  0.65497049     0.09800
H601        H  0.87987252  0.25076947  0.70276643     0.14300
H602        H  0.83669156  0.16824437  0.61289400     0.00000
H603        H  0.75258149  0.12491630  0.70196871     0.14600
H604        H  0.87389484  0.12138335  0.70186130     0.14400
C605        C  0.66530422  0.32891950  0.20306495     0.86200
C606        C  0.63612285  0.27941813  0.18682299    -0.54100
C607        C  0.63710970  0.28040984  0.15364490     0.09100
C608        C  0.66438982  0.33148498  0.13945762     0.20000
C609        C  0.71553620  0.35245028  0.18746345    -0.54800
C610        C  0.71532692  0.35406651  0.15422715     0.09200
C611        C  0.64179833  0.35665911  0.18897554    -0.54300
C612        C  0.64107629  0.35784154  0.15569602     0.09800
H613        H  0.61426510  0.24627931  0.20002875     0.14300
H614        H  0.66383310  0.33281263  0.11247705     0.00000
H615        H  0.74849809  0.36664493  0.20165427     0.14600
H616        H  0.62656029  0.37343724  0.20392837     0.14400
C617        C  0.66519497  0.33006770  0.34683696     0.86200
C618        C  0.71603972  0.35424410  0.36140498    -0.54100
C619        C  0.71719315  0.35656640  0.39452570     0.09100
C620        C  0.66715452  0.33334409  0.41033627     0.20000
C621        C  0.63819343  0.28043813  0.36343587    -0.54800
C622        C  0.63947413  0.28196598  0.39669908     0.09200
C623        C  0.64095808  0.35663774  0.36156754    -0.54300
C624        C  0.64273038  0.35919722  0.39481724     0.09800
H625        H  0.74816632  0.36702724  0.34658682     0.14300
H626        H  0.66881356  0.33480308  0.43727738     0.00000
H627        H  0.61805696  0.24687082  0.35038957     0.14600
H628        H  0.62385836  0.37205981  0.34701404     0.14400
Zn629      Zn  0.53008926  0.46315130  0.01015844     1.49700
Zn630      Zn  0.93364569  0.46479378  0.00945028     1.49400
Zn631      Zn  0.49788464  0.99847027  0.07287199     1.49100
Zn632      Zn  0.52927989  0.06361050  0.00795109     1.49500
O633        O  0.49723848  0.99774851  0.02499596    -1.84500
O634        O  0.99032996  0.40891217  0.98183362    -0.75100
O635        O  0.88630477  0.44072307  0.04647404    -0.74900
O636        O  0.53064706  0.46279580  0.09180133    -0.74400
O637        O  0.92040363  0.40740140  0.98243028    -0.75100
O638        O  0.55566459  0.44203817  0.04763736    -0.74700
O639        O  0.93169030  0.46639436  0.09101937    -0.75300
O640        O  0.55014848  0.11151451  0.04447295    -0.74700
O641        O  0.91352464  0.00430424  0.98191412    -0.75400
O642        O  0.53101801  0.06698695  0.08938370    -0.74800
O643        O  0.98253246  0.07326983  0.98124751    -0.75300
O644        O  0.58793550  0.07797687  0.98117239    -0.75200
O645        O  0.58896875  0.00967248  0.98317132    -0.75000
C646        C  0.94628622  0.38990359  0.97334708     0.76800
C647        C  0.89047832  0.44449589  0.07730743     0.77300
C648        C  0.55305298  0.44401079  0.07845568     0.76300
C649        C  0.54885859  0.10773611  0.07535676     0.76600
C650        C  0.93837530  0.04805977  0.97311771     0.77800
C651        C  0.60716997  0.05296976  0.97387830     0.76800
Zn652      Zn  0.53541301  0.46686275  0.54029200     1.49700
Zn653      Zn  0.53471044  0.06530363  0.54287734     1.49400
Zn654      Zn  0.99915684  0.49980341  0.47613514     1.49100
Zn655      Zn  0.93434676  0.46499100  0.54081195     1.49500
O656        O  0.00029930  0.49873173  0.52387661    -1.84500
O657        O  0.59226375  0.00961008  0.56862880    -0.75100
O658        O  0.55612069  0.11305300  0.50606339    -0.74900
O659        O  0.53515308  0.46679872  0.45877020    -0.74400
O660        O  0.59396436  0.07907710  0.56859141    -0.75100
O661        O  0.56048293  0.44556545  0.50273166    -0.74700
O662        O  0.53287100  0.06791281  0.46151175    -0.75300
O663        O  0.88605484  0.43794016  0.50448589    -0.74700
O664        O  0.99186720  0.07879159  0.57126278    -0.75400
O665        O  0.93034866  0.46541313  0.45958429    -0.74800
O666        O  0.92145312  0.01077444  0.57007050    -0.75300
O667        O  0.92297528  0.40993692  0.56974036    -0.75200
O668        O  0.99031851  0.40689334  0.56532912    -0.75000
C669        C  0.61192556  0.05336161  0.57716347     0.76800
C670        C  0.55361657  0.10887442  0.47519527     0.77300
C671        C  0.55707685  0.44730371  0.47192903     0.76300
C672        C  0.88956344  0.44172243  0.47365584     0.76600
C673        C  0.94765321  0.05413995  0.57927533     0.77800
C674        C  0.94784225  0.39034511  0.57651267     0.76800
C675        C  0.76609744  0.35231052  0.43973912    -0.26600
C676        C  0.76226597  0.37863343  0.41385135    -0.14700
C677        C  0.80006423  0.42617775  0.40831904     0.35900
C678        C  0.84130958  0.44544095  0.42786814    -0.26100
C679        C  0.84528886  0.41907266  0.45366303    -0.15300
C680        C  0.80684605  0.37203700  0.45981504     0.37000
N681        N  0.80854985  0.34304582  0.48568780    -0.89600
H682        H  0.73709835  0.31605938  0.44443322     0.18100
H683        H  0.87002775  0.48189313  0.42339929     0.18100
N684        N  0.79661829  0.45673402  0.38439146    -0.88600
H685        H  0.81010556  0.35948803  0.50789290     0.35500
H686        H  0.83970050  0.34071075  0.48302401     0.40600
H687        H  0.76468289  0.45725857  0.38823366     0.40200
H688        H  0.79590120  0.44330545  0.36120493     0.35100
C689        C  0.57711519  0.37791763  0.40504710    -0.26600
C690        C  0.62200944  0.38362915  0.41397978    -0.14700
C691        C  0.64627568  0.41218922  0.44125258     0.35900
C692        C  0.62437866  0.43238227  0.45991682    -0.26100
C693        C  0.57927370  0.42616703  0.45120120    -0.15300
C694        C  0.55580648  0.39917236  0.42324806     0.37000
N695        N  0.50958202  0.39188729  0.41387871    -0.89600
H696        H  0.55790080  0.35601343  0.38422049     0.18100
H697        H  0.64320816  0.45384178  0.48100859     0.18100
N698        N  0.69386109  0.42223489  0.44947066    -0.88600
H699        H  0.48513917  0.35498381  0.41365799     0.35500
H700        H  0.51234309  0.40479613  0.39013796     0.40600
H701        H  0.71694409  0.45939061  0.44873218     0.40200
H702        H  0.69327104  0.41067329  0.47335752     0.35100
C703        C  0.57303680  0.19282400  0.46534565    -0.26600
C704        C  0.57550216  0.15272943  0.45487335    -0.14700
C705        C  0.59889869  0.15512334  0.42528936     0.35900
C706        C  0.61950886  0.19765906  0.40694849    -0.26100
C707        C  0.61673252  0.23776789  0.41718934    -0.15300
C708        C  0.59242827  0.23494279  0.44651469     0.37000
N709        N  0.58604612  0.27402731  0.45661997    -0.89600
H710        H  0.55456894  0.19073661  0.48788602     0.18100
H711        H  0.63856259  0.19970568  0.38471577     0.18100
N712        N  0.60251713  0.11475370  0.41427301    -0.88600
H713        H  0.56751787  0.26619333  0.47874632     0.35500
H714        H  0.56423858  0.27775515  0.43928790     0.40600
H715        H  0.62395469  0.10934389  0.43098990     0.40200
H716        H  0.62033087  0.12221965  0.39187774     0.35100
C717        C  0.66266601  0.29035389  0.29267305    -0.26600
C718        C  0.66690284  0.33018324  0.30959655    -0.14700
C719        C  0.68005215  0.37233857  0.29148123     0.35900
C720        C  0.67907825  0.37085005  0.25735719    -0.26100
C721        C  0.66795988  0.32872933  0.24033336    -0.15300
C722        C  0.66523455  0.28994556  0.25853874     0.37000
N723        N  0.66802636  0.25165222  0.24278956    -0.89600
H724        H  0.66020694  0.26025376  0.30593538     0.18100
H725        H  0.68789180  0.40332578  0.24411533     0.18100
N726        N  0.69582790  0.41720360  0.30754392    -0.88600
H727        H  0.66587201  0.22635712  0.25969345     0.35500
H728        H  0.70196325  0.26650250  0.23185906     0.40600
H729        H  0.73092842  0.44129208  0.29981295     0.40200
H730        H  0.67358252  0.43050102  0.30010947     0.35100
C731        C  0.58785435  0.23358152  0.10581035    -0.26600
C732        C  0.61432535  0.23596234  0.13366862    -0.16500
C733        C  0.61896084  0.19594296  0.14224442     0.35900
C734        C  0.59584438  0.15409201  0.12338661    -0.26100
C735        C  0.56970190  0.15175969  0.09542571    -0.15300
C736        C  0.56532902  0.19181478  0.08660480     0.37000
N737        N  0.53736217  0.18963604  0.05858872    -0.89600
H738        H  0.58399737  0.26407178  0.09934480     0.18100
H739        H  0.59968741  0.12360538  0.12991664     0.18100
N740        N  0.64831166  0.19836187  0.16949890    -0.88600
H741        H  0.53791066  0.22208810  0.05543661     0.35500
H742        H  0.50151693  0.16355359  0.06318786     0.40600
H743        H  0.68392474  0.22434577  0.16415298     0.40200
H744        H  0.64782423  0.16592728  0.17253496     0.35100
C745        C  0.80689819  0.37810133  0.08740993    -0.26600
C746        C  0.84621029  0.42203393  0.09740252    -0.14700
C747        C  0.84242271  0.44350465  0.12623836     0.35900
C748        C  0.79962488  0.42079406  0.14447624    -0.26100
C749        C  0.76031203  0.37671452  0.13451809    -0.15300
C750        C  0.76442652  0.35503434  0.10588581     0.37000
N751        N  0.72633897  0.30875224  0.09607234    -0.89600
H752        H  0.80954186  0.36090456  0.06549703     0.18100
H753        H  0.79688345  0.43815867  0.16625947     0.18100
N754        N  0.88133633  0.48902015  0.13656523    -0.88600
H755        H  0.71553735  0.31178891  0.07257854     0.35500
H756        H  0.74007240  0.28546454  0.09512315     0.40600
H757        H  0.89156983  0.48491184  0.15999314     0.40200
H758        H  0.86854111  0.51306089  0.13790260     0.35100
C759        C  0.64374077  0.41092741  0.11056318    -0.26600
C760        C  0.61860054  0.38096575  0.13687976    -0.14700
C761        C  0.57199481  0.37245169  0.14426156     0.35900
C762        C  0.55167451  0.39441996  0.12557838    -0.26100
C763        C  0.57658260  0.42385241  0.09899235    -0.15300
C764        C  0.62320163  0.43244063  0.09166149     0.37000
N765        N  0.64816537  0.95694697  0.06292192    -0.89600
H766        H  0.67968363  0.41799602  0.10478076     0.18100
H767        H  0.51561684  0.38712708  0.13120738     0.18100
N768        N  0.54435095  0.33991853  0.16980975    -0.88600
H769        H  0.65382079  0.93502985  0.04698173     0.35500
H770        H  0.68181871  0.98388484  0.07121065     0.40600
H771        H  0.51254509  0.31235452  0.15966921     0.40200
H772        H  0.53506228  0.35840491  0.18644821     0.35100
C773        C  0.87716634  0.06223857  0.59470436    -0.26600
C774        C  0.92599430  0.07658905  0.59927105    -0.14700
C775        C  0.95337841  0.11255637  0.62247155     0.35900
C776        C  0.93122410  0.13317480  0.64048889    -0.26100
C777        C  0.88265210  0.11905535  0.63552661    -0.15300
C778        C  0.85549787  0.08344747  0.61244357     0.37000
N779        N  0.80559927  0.06794854  0.60750454    -0.89600
H780        H  0.85578990  0.03482494  0.57696282     0.18100
H781        H  0.95195479  0.16062594  0.65837141     0.18100
N782        N  0.00325684  0.12755200  0.62800077    -0.88600
H783        H  0.78553377  0.03113945  0.61226753     0.35500
H784        H  0.80070927  0.07339525  0.58302110     0.40600
H785        H  0.49560768  0.08345439  0.64238508     0.40200
H786        H  0.51249298  0.13960550  0.65382299     0.35100
C787        C  0.87331241  0.29777807  0.64105524    -0.26600
C788        C  0.88625454  0.26284013  0.63568773    -0.14700
C789        C  0.92049485  0.27038483  0.61150598     0.35900
C790        C  0.94051196  0.31251490  0.59269460    -0.26100
C791        C  0.92678975  0.34710337  0.59750246    -0.15300
C792        C  0.89305581  0.33964881  0.62212301     0.37000
N793        N  0.87934376  0.37483263  0.62840221    -0.89600
H794        H  0.84714652  0.29218040  0.65972574     0.18100
H795        H  0.96654149  0.31810005  0.57393817     0.18100
N796        N  0.93528405  0.23558164  0.60646917    -0.88600
H797        H  0.88775275  0.38578685  0.65263866     0.35500
H798        H  0.84196341  0.35844236  0.62562811     0.40600
H799        H  0.95300207  0.23462668  0.62759904     0.40200
H800        H  0.96041997  0.24630620  0.58757433     0.35100
C801        C  0.71180538  0.07094467  0.63621196    -0.26600
C802        C  0.74164879  0.12081194  0.63527179    -0.14700
C803        C  0.72925843  0.14852368  0.61538988     0.35900
C804        C  0.68684031  0.12558396  0.59666828    -0.26100
C805        C  0.65675116  0.07533067  0.59716949    -0.15300
C806        C  0.67003376  0.04784240  0.61719512     0.37000
N807        N  0.64174811  0.99663386  0.61932325    -0.89600
H808        H  0.72153206  0.04967585  0.65151423     0.18100
H809        H  0.67742272  0.14715609  0.58146947     0.18100
N810        N  0.75955810  0.19983735  0.61458399    -0.88600
H811        H  0.64114273  0.98198162  0.59654735     0.35500
H812        H  0.60667855  0.98693774  0.62628392     0.40600
H813        H  0.75915914  0.21279764  0.63782462     0.40200
H814        H  0.74544409  0.21505105  0.59868561     0.35100
C815        C  0.80177214  0.17427174  0.75747288    -0.26600
C816        C  0.83761910  0.16967173  0.74093037    -0.14700
C817        C  0.87666404  0.17349547  0.75954018     0.35900
C818        C  0.87351272  0.17135732  0.79367562    -0.26100
C819        C  0.83395651  0.16893831  0.81019627    -0.15300
C820        C  0.80042743  0.17555159  0.79164628     0.37000
N821        N  0.76586266  0.18475894  0.80733443    -0.89600
H822        H  0.77530679  0.17842984  0.74372784     0.18100
H823        H  0.90341202  0.17365814  0.80736494     0.18100
N824        N  0.92020479  0.18138505  0.74403047    -0.88600
H825        H  0.74379383  0.18846134  0.79021022     0.35500
H826        H  0.78497389  0.21772117  0.81927570     0.40600
H827        H  0.93586272  0.21486374  0.73256796     0.40200
H828        H  0.94520432  0.18326699  0.76119337     0.35100
C829        C  0.84759715  0.07118418  0.92749314    -0.26600
C830        C  0.87769734  0.11792544  0.91615399    -0.14700
C831        C  0.92725183  0.14151410  0.92333032     0.35900
C832        C  0.94593688  0.11797804  0.94165931    -0.26100
C833        C  0.91610448  0.07088330  0.95335957    -0.15300
C834        C  0.86600657  0.04739113  0.94626781     0.37000
N835        N  0.83381961  0.99977053  0.95814244    -0.89600
H836        H  0.80950910  0.05322055  0.92167714     0.18100
H837        H  0.98426514  0.13694879  0.94675146     0.18100
N838        N  0.95929945  0.18951500  0.91240805    -0.88600
H839        H  0.79881660  0.98721484  0.94949173     0.35500
H840        H  0.83204471  0.00192950  0.98345290     0.40600
H841        H  0.94716144  0.21174144  0.92167229     0.40200
H842        H  0.95771819  0.19014448  0.88699845     0.35100
C843        C  0.92543848  0.29682252  0.90871727    -0.26600
C844        C  0.87802327  0.26087768  0.91573171    -0.14700
C845        C  0.85296890  0.26773231  0.94139898     0.35900
C846        C  0.87609769  0.31031116  0.95966687    -0.26100
C847        C  0.92394968  0.34590645  0.95313135    -0.15300
C848        C  0.94875750  0.33883697  0.92723087     0.37000
N849        N  0.99713441  0.37401326  0.91859576    -0.89600
H850        H  0.94489930  0.29178933  0.88902524     0.18100
H851        H  0.85679003  0.31555763  0.97935744     0.18100
N852        N  0.80397962  0.23186938  0.94850433    -0.88600
H853        H  0.01997443  0.37812276  0.93800958     0.35500
H854        H  0.99854593  0.40664401  0.91422984     0.40600
H855        H  0.78294510  0.22994661  0.92848949     0.40200
H856        H  0.79097919  0.24216350  0.96838726     0.35100
C857        C  0.73220423  0.08964845  0.94230895    -0.26600
C858        C  0.73529666  0.11721933  0.91500969    -0.14700
C859        C  0.69627598  0.12418426  0.90733412     0.35900
C860        C  0.65488273  0.10296421  0.92706902    -0.26100
C861        C  0.65149628  0.07458431  0.95399555    -0.15300
C862        C  0.69076078  0.06790121  0.96159400     0.37000
N863        N  0.69029671  0.04051958  0.98927154    -0.89600
H864        H  0.76207965  0.08448620  0.94858583     0.18100
H865        H  0.62491915  0.10826729  0.92127573     0.18100
N866        N  0.69903639  0.15328168  0.87991538    -0.88600
H867        H  0.66313966  0.00485922  0.98616714     0.35500
H868        H  0.68296429  0.05432521  0.01009612     0.40600
H869        H  0.72667249  0.18835432  0.88441538     0.40200
H870        H  0.66725459  0.15458018  0.87763878     0.35100
C871        C  0.83248817  0.66340169  0.84735342     0.86200
C872        C  0.78129078  0.63545172  0.86184878    -0.54100
C873        C  0.77990961  0.63628703  0.89505307     0.09100
C874        C  0.83007483  0.66315265  0.91096796     0.20000
C875        C  0.85578448  0.71362733  0.86262812    -0.54800
C876        C  0.85440648  0.71350229  0.89583815     0.09200
C877        C  0.85825822  0.63920075  0.86360311    -0.54300
C878        C  0.85731963  0.63962194  0.89675724     0.09800
H879        H  0.74896717  0.61539036  0.84728150     0.14300
H880        H  0.82952051  0.66319961  0.93800907     0.00000
H881        H  0.87215895  0.74646234  0.84835430     0.14600
H882        H  0.87473855  0.62196634  0.85049435     0.14400
C883        C  0.83719715  0.66402058  0.70350634     0.86200
C884        C  0.86349506  0.71473042  0.68883149    -0.54100
C885        C  0.86369190  0.71569073  0.65562505     0.09100
C886        C  0.83708279  0.66585142  0.63984474     0.20000
C887        C  0.78635052  0.63947120  0.68809722    -0.54800
C888        C  0.78650052  0.64109629  0.65491583     0.09200
C889        C  0.86048055  0.63738663  0.68750622    -0.54300
C890        C  0.86083937  0.63885696  0.65430718     0.09800
H891        H  0.88069134  0.74710597  0.70349567     0.14300
H892        H  0.83704874  0.66679544  0.61279979     0.00000
H893        H  0.75303408  0.62152433  0.70190883     0.14600
H894        H  0.87360948  0.61714004  0.70078202     0.14400
C895        C  0.66187988  0.82685125  0.20419489     0.86200
C896        C  0.63250495  0.77681240  0.18863371    -0.54100
C897        C  0.63339871  0.77688233  0.15540468     0.09100
C898        C  0.66055306  0.82761579  0.14058883     0.20000
C899        C  0.71196840  0.84973978  0.18843075    -0.54800
C900        C  0.71150958  0.85034889  0.15519126     0.09200
C901        C  0.63839635  0.85428658  0.18953709    -0.54300
C902        C  0.63740339  0.85460768  0.15624575     0.09800
H903        H  0.61111174  0.74411030  0.20238915     0.14300
H904        H  0.66017242  0.82834519  0.11359993     0.00000
H905        H  0.74504110  0.86423131  0.20252636     0.14600
H906        H  0.62377777  0.87191531  0.20418844     0.14400
C907        C  0.66653149  0.83352195  0.34807799     0.86200
C908        C  0.71727282  0.85809516  0.36303762    -0.54100
C909        C  0.71790368  0.86004915  0.39626349     0.09100
C910        C  0.66750131  0.83630136  0.41165732     0.20000
C911        C  0.63963221  0.78385069  0.36454556    -0.54800
C912        C  0.64051000  0.78506420  0.39775201     0.09200
C913        C  0.64176208  0.85961881  0.36262890    -0.54300
C914        C  0.64305581  0.86197882  0.39586706     0.09800
H915        H  0.74964711  0.87127712  0.34843431     0.14300
H916        H  0.66839419  0.83736526  0.43863543     0.00000
H917        H  0.61990652  0.75030142  0.35140843     0.14600
H918        H  0.62439946  0.87469889  0.34802134     0.14400
Zn919      Zn  0.53136992  0.96530142  0.00985044     1.49700
Zn920      Zn  0.92870045  0.96091898  0.00927402     1.49400
Zn921      Zn  0.49693637  0.49676022  0.07293768     1.49100
Zn922      Zn  0.53075182  0.56245231  0.00807348     1.49500
O923        O  0.49704325  0.49664688  0.02504697    -1.84500
O924        O  0.98638642  0.90493303  0.98344786    -0.75100
O925        O  0.88141253  0.93581579  0.04648387    -0.74900
O926        O  0.53258222  0.96507418  0.09145496    -0.74400
O927        O  0.91661322  0.90371572  0.98224513    -0.75100
O928        O  0.55648766  0.94323267  0.04725839    -0.74700
O929        O  0.92702892  0.96281517  0.09090592    -0.75300
O930        O  0.55373527  0.60972805  0.04490115    -0.74700
O931        O  0.91946083  0.50819880  0.98197800    -0.75400
O932        O  0.53104006  0.56477640  0.08969615    -0.74800
O933        O  0.98845530  0.57734033  0.98110860    -0.75300
O934        O  0.58812897  0.57490997  0.98046124    -0.75200
O935        O  0.58743212  0.50575039  0.98251578    -0.75000
C936        C  0.94270627  0.88595594  0.97417564     0.76800
C937        C  0.88575552  0.93999227  0.07731223     0.77300
C938        C  0.55429774  0.94552300  0.07810445     0.76300
C939        C  0.55100271  0.60565686  0.07576963     0.76600
C940        C  0.94438499  0.55173047  0.97283819     0.77800
C941        C  0.60626399  0.54899195  0.97295099     0.76800
Zn942      Zn  0.53444711  0.96640417  0.54103885     1.49700
Zn943      Zn  0.53590045  0.56625031  0.54181644     1.49400
Zn944      Zn  0.99956536  0.00109435  0.47901878     1.49100
Zn945      Zn  0.93512406  0.96591226  0.54390083     1.49500
O946        O  0.00107950  0.99987853  0.52677649    -1.84500
O947        O  0.59268833  0.51001716  0.56815904    -0.75100
O948        O  0.55762483  0.61364098  0.50483712    -0.74900
O949        O  0.53261152  0.96723323  0.45953181    -0.74400
O950        O  0.59476073  0.57971236  0.56822010    -0.75100
O951        O  0.55921635  0.94619396  0.50292035    -0.74700
O952        O  0.53574804  0.56899684  0.46000151    -0.75300
O953        O  0.88639950  0.93904479  0.50738040    -0.74700
O954        O  0.99035800  0.57676487  0.56883616    -0.75400
O955        O  0.93064304  0.96695008  0.46248933    -0.74800
O956        O  0.91987374  0.50896730  0.56694324    -0.75300
O957        O  0.92386447  0.91017957  0.57264376    -0.75200
O958        O  0.99114648  0.90714416  0.56767883    -0.75000
C959        C  0.61233565  0.55366709  0.57691893     0.76800
C960        C  0.55567018  0.60983569  0.47394982     0.77300
C961        C  0.55533851  0.94829212  0.47218972     0.76300
C962        C  0.88982176  0.94317781  0.47652395     0.76600
C963        C  0.94611318  0.55198472  0.57666566     0.77800
C964        C  0.94867150  0.89030688  0.57897131     0.76800
C965        C  0.76610644  0.85488187  0.44183090    -0.26600
C966        C  0.76268625  0.88173977  0.41609897    -0.14700
C967        C  0.80068598  0.92936085  0.41114413     0.35900
C968        C  0.84182301  0.94800431  0.43083977    -0.26100
C969        C  0.84547817  0.92106342  0.45640326    -0.15300
C970        C  0.80669983  0.87403826  0.46213129     0.37000
N971        N  0.80791962  0.84447036  0.48777270    -0.89600
H972        H  0.73693925  0.81860400  0.44618981     0.18100
H973        H  0.87070973  0.98447724  0.42669284     0.18100
N974        N  0.79750527  0.96063167  0.38770149    -0.88600
H975        H  0.80959050  0.86069869  0.51009225     0.35500
H976        H  0.83888620  0.84182613  0.48503955     0.40600
H977        H  0.76573689  0.96135573  0.39184835     0.40200
H978        H  0.79648998  0.94759111  0.36433647     0.35100
C979        C  0.57689072  0.87995409  0.40533938    -0.26600
C980        C  0.62182230  0.88614291  0.41467420    -0.14700
C981        C  0.64578734  0.91516023  0.44177915     0.35900
C982        C  0.62350585  0.93528754  0.45998676    -0.26100
C983        C  0.57824261  0.92844293  0.45103177    -0.15300
C984        C  0.55508889  0.90132512  0.42295273     0.37000
N985        N  0.50869501  0.89374544  0.41322774    -0.89600
H986        H  0.55830269  0.85769017  0.38451402     0.18100
H987        H  0.64200930  0.95690350  0.48110035     0.18100
N988        N  0.69332161  0.92546168  0.45041210    -0.88600
H989        H  0.49520801  0.87009053  0.39353337     0.35500
H990        H  0.51369688  0.92647890  0.40465836     0.40600
H991        H  0.71630377  0.96262964  0.44956237     0.40200
H992        H  0.69246428  0.91415142  0.47440511     0.35100
C993        C  0.57200162  0.69289329  0.46435053    -0.26600
C994        C  0.57710355  0.65416347  0.45407102    -0.14700
C995        C  0.60314909  0.65863950  0.42539520     0.35900
C996        C  0.62358576  0.70175334  0.40769539    -0.26100
C997        C  0.61825225  0.74046850  0.41777194    -0.15300
C998        C  0.59156076  0.73570901  0.44622762     0.37000
N999        N  0.58319700  0.77361538  0.45616797    -0.89600
H1000       H  0.55161181  0.68925013  0.48623789     0.18100
H1001       H  0.64449571  0.70539879  0.38609261     0.18100
N1002       N  0.60969755  0.61986126  0.41472929    -0.88600
H1003       H  0.56292734  0.76436563  0.47760595     0.35500
H1004       H  0.56233722  0.77745349  0.43812849     0.40600
H1005       H  0.63050715  0.61500732  0.43229064     0.40200
H1006       H  0.62940186  0.62883619  0.39304782     0.35100
C1007       C  0.66473381  0.79311186  0.29437005    -0.26600
C1008       C  0.66786573  0.83286624  0.31077792    -0.14700
C1009       C  0.67802102  0.87361384  0.29192455     0.35900
C1010       C  0.67551531  0.87050141  0.25784836    -0.26100
C1011       C  0.66520670  0.82807916  0.24148571    -0.15300
C1012       C  0.66493017  0.79087267  0.26020745     0.37000
N1013       N  0.66726267  0.75208386  0.24484703    -0.89600
H1014       H  0.66445419  0.76431515  0.30803362     0.18100
H1015       H  0.68268071  0.90212013  0.24413576     0.18100
N1016       N  0.69229203  0.91877099  0.30708917    -0.88600
H1017       H  0.66668802  0.72789196  0.26208271     0.35500
H1018       H  0.70042800  0.76671408  0.23287395     0.40600
H1019       H  0.72653236  0.94381027  0.29844829     0.40200
H1020       H  0.66823379  0.92993829  0.29980380     0.35100
C1021       C  0.58856268  0.73082852  0.10621813    -0.26600
C1022       C  0.61163601  0.73223011  0.13558142    -0.16500
C1023       C  0.61512053  0.69179044  0.14501050     0.35900
C1024       C  0.59407646  0.65058196  0.12540720    -0.26100
C1025       C  0.57136365  0.64942159  0.09597752    -0.15300
C1026       C  0.56845827  0.68993626  0.08627068     0.37000
N1027       N  0.54429745  0.68910566  0.05654227    -0.89600
H1028       H  0.58548750  0.76150152  0.09899991     0.18100
H1029       H  0.59672375  0.61964731  0.13263979     0.18100
N1030       N  0.64124189  0.69307952  0.17384597    -0.88600
H1031       H  0.54573297  0.72188254  0.05282729     0.35500
H1032       H  0.50787587  0.66322977  0.05918248     0.40600
H1033       H  0.67743042  0.71898532  0.17020548     0.40200
H1034       H  0.64011120  0.66040406  0.17731889     0.35100
C1035       C  0.80258203  0.87281661  0.08815482    -0.26600
C1036       C  0.84166210  0.91727670  0.09762431    -0.14700
C1037       C  0.83788611  0.93928935  0.12616460     0.35900
C1038       C  0.79540464  0.91671008  0.14464842    -0.26100
C1039       C  0.75629984  0.87219404  0.13528304    -0.15300
C1040       C  0.76024866  0.84963467  0.10694987     0.37000
N1041       N  0.72193769  0.80282714  0.09779149    -0.89600
H1042       H  0.80556229  0.85554535  0.06639671     0.18100
H1043       H  0.79267527  0.93463238  0.16613438     0.18100
N1044       N  0.87646957  0.98535870  0.13589154    -0.88600
H1045       H  0.73047484  0.79141376  0.07630835     0.35500
H1046       H  0.71895982  0.77881777  0.11603261     0.40600
H1047       H  0.88713896  0.98215304  0.15938969     0.40200
H1048       H  0.86317826  0.00901839  0.13685354     0.35100
C1049       C  0.64057331  0.90569958  0.10942012    -0.26600
C1050       C  0.61602951  0.87862909  0.13697629    -0.14700
C1051       C  0.57144045  0.87455832  0.14542273     0.35900
C1052       C  0.55265440  0.89782625  0.12654540    -0.26100
C1053       C  0.57686325  0.92424909  0.09871989    -0.15300
C1054       C  0.62148835  0.92849105  0.09034095     0.37000
N1055       N  0.65022822  0.46390268  0.06547006    -0.89600
H1056       H  0.67511595  0.90974283  0.10282891     0.18100
H1057       H  0.51811688  0.89383928  0.13308555     0.18100
N1058       N  0.54408823  0.84529039  0.17236100    -0.88600
H1059       H  0.65912746  0.44473680  0.04915543     0.35500
H1060       H  0.68229211  0.49185863  0.07503972     0.40600
H1061       H  0.51054503  0.81876610  0.16362512     0.40200
H1062       H  0.53830746  0.86680790  0.18859979     0.35100
C1063       C  0.87658801  0.56173484  0.59166262    -0.26600
C1064       C  0.92459127  0.57383399  0.59720903    -0.14700
C1065       C  0.95144531  0.60702126  0.62198532     0.35900
C1066       C  0.92974897  0.62766592  0.64040784    -0.26100
C1067       C  0.88208232  0.61608863  0.63440439    -0.15300
C1068       C  0.85531723  0.58287666  0.60988449     0.37000
N1069       N  0.80621786  0.56974453  0.60390798    -0.89600
H1070       H  0.85565743  0.53626462  0.57276229     0.18100
H1071       H  0.95017191  0.65320414  0.65940181     0.18100
N1072       N  0.00029845  0.61912637  0.62864800    -0.88600
H1073       H  0.78468622  0.53269573  0.60720855     0.35500
H1074       H  0.80321541  0.57757584  0.57959618     0.40600
H1075       H  0.49571616  0.58647009  0.63943253     0.40200
H1076       H  0.51137238  0.64204519  0.65152482     0.35100
C1077       C  0.87290114  0.79501929  0.64197490    -0.26600
C1078       C  0.88685008  0.76083923  0.63659035    -0.14700
C1079       C  0.92225420  0.76976636  0.61300251     0.35900
C1080       C  0.94233935  0.81248160  0.59472009    -0.26100
C1081       C  0.92757153  0.84635656  0.59948837    -0.15300
C1082       C  0.89273653  0.83747833  0.62362431     0.37000
N1083       N  0.87800456  0.87184528  0.63006927    -0.89600
H1084       H  0.84592979  0.78841278  0.66026360     0.18100
H1085       H  0.96923897  0.81906787  0.57639783     0.18100
N1086       N  0.93806743  0.73572740  0.60801509    -0.88600
H1087       H  0.88541568  0.88202762  0.65449980     0.35500
H1088       H  0.84069359  0.85501065  0.62670825     0.40600
H1089       H  0.95478924  0.73415173  0.62948372     0.40200
H1090       H  0.96423487  0.74757006  0.58973773     0.35100
C1091       C  0.71086157  0.56943532  0.63661863    -0.26600
C1092       C  0.74183018  0.61913050  0.63532426    -0.14700
C1093       C  0.73035731  0.64734736  0.61523739     0.35900
C1094       C  0.68785445  0.62510175  0.59655853    -0.26100
C1095       C  0.65680921  0.57502066  0.59726776    -0.15300
C1096       C  0.66901461  0.54699620  0.61762376     0.37000
N1097       N  0.63958902  0.49590238  0.62006248    -0.89600
H1098       H  0.71982113  0.54775271  0.65210330     0.18100
H1099       H  0.67919857  0.64704661  0.58114580     0.18100
N1100       N  0.76170240  0.69849926  0.61417582    -0.88600
H1101       H  0.63879226  0.48068860  0.59747603     0.35500
H1102       H  0.60469227  0.48721325  0.62673931     0.40600
H1103       H  0.76166702  0.71191957  0.63731817     0.40200
H1104       H  0.74824441  0.71414721  0.59811216     0.35100
C1105       C  0.80238415  0.67067292  0.75726027    -0.26600
C1106       C  0.83779358  0.66526935  0.74079468    -0.14700
C1107       C  0.87624331  0.66812673  0.75951615     0.35900
C1108       C  0.87358019  0.66701372  0.79360503    -0.26100
C1109       C  0.83446898  0.66560911  0.81008846    -0.15300
C1110       C  0.80095213  0.67207626  0.79140452     0.37000
N1111       N  0.76609971  0.68101238  0.80693880    -0.89600
H1112       H  0.77624236  0.67528714  0.74346585     0.18100
H1113       H  0.90359547  0.66913187  0.80704731     0.18100
N1114       N  0.91924690  0.67448847  0.74436896    -0.88600
H1115       H  0.74383012  0.68426316  0.78974990     0.35500
H1116       H  0.78493456  0.71409534  0.81875702     0.40600
H1117       H  0.94834471  0.70661831  0.75280445     0.40200
H1118       H  0.92451798  0.64644073  0.75185120     0.35100
C1119       C  0.85683777  0.56769664  0.91843603    -0.26600
C1120       C  0.87933428  0.61771325  0.91680793    -0.14700
C1121       C  0.92346091  0.64604754  0.93306666     0.35900
C1122       C  0.94425008  0.62387947  0.95072422    -0.26100
C1123       C  0.92165031  0.57356123  0.95283500    -0.15300
C1124       C  0.87743866  0.54534825  0.93629207     0.37000
N1125       N  0.85361643  0.49404395  0.93700803    -0.89600
H1126       H  0.82310758  0.54584851  0.90567404     0.18100
H1127       H  0.97809293  0.64632576  0.96317895     0.18100
N1128       N  0.94816377  0.69735780  0.93169505    -0.88600
H1129       H  0.84993856  0.48179523  0.91304375     0.35500
H1130       H  0.81908161  0.48109589  0.94660383     0.40600
H1131       H  0.92575869  0.70878498  0.94173194     0.40200
H1132       H  0.95441382  0.70794499  0.90727122     0.35100
C1133       C  0.92466747  0.79287404  0.91025438    -0.26600
C1134       C  0.87631287  0.75796540  0.91553236    -0.14700
C1135       C  0.84994559  0.76506975  0.94010456     0.35900
C1136       C  0.87254275  0.80717160  0.95886477    -0.26100
C1137       C  0.92119918  0.84195128  0.95395597    -0.15300
C1138       C  0.94754162  0.83426999  0.92940532     0.37000
N1139       N  0.99714460  0.86815152  0.92281105    -0.89600
H1140       H  0.94517289  0.78736899  0.89154643     0.18100
H1141       H  0.85213174  0.81271099  0.97761780     0.18100
N1142       N  0.80019072  0.72988285  0.94559494    -0.88600
H1143       H  0.01769219  0.87073912  0.94328059     0.35500
H1144       H  0.00055129  0.90158572  0.91808911     0.40600
H1145       H  0.78096815  0.72883547  0.92475152     0.40200
H1146       H  0.78610858  0.74027769  0.96478709     0.35100
C1147       C  0.73145391  0.58572750  0.94155177    -0.26600
C1148       C  0.73443270  0.61294505  0.91406669    -0.14700
C1149       C  0.69472291  0.61848932  0.90568688     0.35900
C1150       C  0.65319854  0.59707015  0.92529349    -0.26100
C1151       C  0.65021789  0.56967295  0.95269151    -0.15300
C1152       C  0.68977660  0.56363707  0.96064907     0.37000
N1153       N  0.68931807  0.53654817  0.98849324    -0.89600
H1154       H  0.76162196  0.58110639  0.94807381     0.18100
H1155       H  0.62288408  0.60162808  0.91912446     0.18100
N1156       N  0.69686976  0.64635424  0.87768314    -0.88600
H1157       H  0.66220653  0.50084890  0.98545093     0.35500
H1158       H  0.68176229  0.55043229  0.00918077     0.40600
H1159       H  0.72370798  0.68187037  0.88186993     0.40200
H1160       H  0.66453982  0.64646170  0.87482947     0.35100
loop_ 
_geom_bond_atom_site_label_1 
_geom_bond_atom_site_label_2 
_geom_bond_distance 
_geom_bond_site_symmetry_2 
_ccdc_geom_bond_type 
C1            C2   1.543       .  S
C1            C7   1.544       .  S
C1            C5   1.535       .  S
C1          C239   1.533       .  S
C2            H9   1.085       .  S
C2            C3   1.366       .  D
C3            C4   1.538       .  S
C3          C278   1.484       .  S
C4            C8   1.537       .  S
C4            C6   1.535       .  S
C4           H10   1.111       .  S
C5           H11   1.086       .  S
C5            C6   1.363       .  D
C6          C264   1.480       .  S
C7           H12   1.085       .  S
C7            C8   1.364       .  D
C8          C250   1.480       .  S
C13          C14   1.536       .  S
C13          C19   1.543       .  S
C13          C17   1.545       .  S
C13         C236   1.533       .  S
C14          H21   1.086       .  S
C14          C15   1.364       .  D
C15          C16   1.534       .  S
C15         C208   1.479       .  S
C16          C20   1.536       .  S
C16          C18   1.534       .  S
C16          H22   1.111       .  S
C17          H23   1.085       .  S
C17          C18   1.363       .  D
C18         C222   1.475       .  S
C19          H24   1.085       .  S
C19          C20   1.365       .  D
C20         C197   1.481       .  S
C25          C26   1.541       .  S
C25          C31   1.543       .  S
C25          C29   1.535       .  S
C25         C141   1.534       .  S
C26          H33   1.083       .  S
C26          C27   1.364       .  D
C27          C28   1.538       .  S
C27         C152   1.488       .  S
C28          C32   1.539       .  S
C28          C30   1.537       .  S
C28          H34   1.109       .  S
C29          H35   1.086       .  S
C29          C30   1.366       .  D
C30         C169   1.486       .  S
C31          H36   1.085       .  S
C31          C32   1.368       .  D
C32         C180   1.486       .  S
C37          C38   1.532       .  S
C37          C43   1.541       .  S
C37          C41   1.544       .  S
C37         C138   1.532       .  S
C38          H45   1.085       .  S
C38          C39   1.364       .  D
C39          C40   1.538       .  S
C39          C96   1.483       .  S
C40          C44   1.542       .  S
C40          C42   1.539       .  S
C40          H46   1.108       .  S
C41          H47   1.084       .  S
C41          C42   1.366       .  D
C42         C127   1.489       .  S
C43          H48   1.085       .  S
C43          C44   1.368       .  D
C44         C110   1.493       .  S
Zn49         O58   2.012       .  S
Zn49        O634   2.025   1_454  S
Zn49        O355   2.004   1_554  S
Zn49        O343   1.958       .  S
Zn50         O55   2.012       .  S
Zn50         O57   2.014   1_554  S
Zn50        O351   2.030   1_554  S
Zn50        O923   1.962       .  S
Zn51         O62   2.030   1_665  S
Zn51        O346   2.042   1_655  S
Zn51        O929   2.029       .  S
Zn51         O53   1.968       .  S
Zn52         O60   2.014       .  S
Zn52         O64   2.028   1_554  S
Zn52        O643   2.011   1_454  S
Zn52         O53   1.963   1_445  S
O53        Zn339   1.958   1_655  S
O53        Zn920   1.964       .  S
O54        Zn629   2.015   1_556  S
O54          C66   1.273       .  A
O55          C67   1.273       .  A
O56        Zn341   2.033   1_455  S
O56          C68   1.275       .  A
O57          C66   1.274       .  A
O58          C68   1.273       .  A
O59        Zn921   2.022       .  S
O59          C67   1.274       .  A
O60          C69   1.273       .  A
O61        Zn340   2.034   1_546  S
O61          C70   1.275       .  A
O62          C69   1.276       .  A
O63        Zn632   2.010   1_556  S
O63          C70   1.273       .  A
O64          C71   1.275       .  A
O65        Zn339   2.004   1_546  S
O65          C71   1.271       .  A
C66         C267   1.481       .  S
C67         C166   1.478       .  S
C68         C183   1.479       .  S
C69         C155   1.481       .  S
C70         C253   1.488       .  S
C71         C281   1.479       .  S
Zn72         O81   2.012       .  S
Zn72        O367   2.012       .  S
Zn72        O668   2.020   1_455  S
Zn72        O656   1.955       .  S
Zn73         O78   2.016       .  S
Zn73         O80   2.018       .  S
Zn73        O664   2.008   1_455  S
Zn73        O946   1.960   1_545  S
Zn74         O85   2.026       .  S
Zn74        O659   2.029       .  S
Zn74        O952   2.030       .  S
Zn74         O76   1.966       .  S
Zn75         O83   2.011       .  S
Zn75         O87   2.018       .  S
Zn75        O376   2.026       .  S
Zn75         O76   1.961       .  S
O76        Zn652   1.958       .  S
O76        Zn943   1.963       .  S
O77        Zn362   2.010   1_545  S
O77          C89   1.271       .  A
O78          C90   1.273       .  A
O79        Zn654   2.027   1_455  S
O79          C91   1.274       .  A
O80          C89   1.274       .  A
O81          C91   1.274       .  A
O82        Zn944   2.028   1_455  S
O82          C90   1.275       .  A
O83          C92   1.272       .  A
O84        Zn653   2.013       .  S
O84          C93   1.273       .  A
O85          C92   1.275       .  A
O86        Zn365   2.014   1_545  S
O86          C93   1.273       .  A
O87          C94   1.274       .  A
O88        Zn652   2.022       .  S
O88          C94   1.275       .  A
C89         C225   1.487       .  S
C90         C124   1.480       .  S
C91         C113   1.483       .  S
C92          C99   1.478       .  S
C93         C194   1.477       .  S
C94         C211   1.486       .  S
C95          C96   1.403       .  A
C95         C100   1.400       .  A
C95         H102   1.084       .  S
C96          C97   1.416       .  A
C97          C98   1.398       .  A
C97         N104   1.433       .  S
C98          C99   1.402       .  A
C98         H103   1.084       .  S
C99         C100   1.416       .  A
C100        N101   1.433       .  S
N101        H105   1.044       .  S
N101        H106   1.046       .  S
N104        H107   1.046       .  S
N104        H108   1.042       .  S
C109        C110   1.407       .  A
C109        C114   1.407       .  A
C109        H116   1.083       .  S
C110        C111   1.410       .  A
C111        C112   1.402       .  A
C111        N118   1.432       .  S
C112        C113   1.404       .  A
C112        H117   1.084       .  S
C113        C114   1.413       .  A
C114        N115   1.438       .  S
N115        H119   1.046       .  S
N115        H120   1.045       .  S
N118        H121   1.046       .  S
N118        H122   1.046       .  S
C123        C124   1.404       .  A
C123        C128   1.408       .  A
C123        H130   1.084       .  S
C124        C125   1.410       .  A
C125        C126   1.406       .  A
C125        N132   1.438       .  S
C126        C127   1.405       .  A
C126        H131   1.084       .  S
C127        C128   1.413       .  A
C128        N129   1.438       .  S
N129        H133   1.046       .  S
N129        H134   1.046       .  S
N132        H135   1.046       .  S
N132        H136   1.046       .  S
C137        C138   1.407       .  A
C137        C142   1.406       .  A
C137        H144   1.080       .  S
C138        C139   1.415       .  A
C139        C140   1.403       .  A
C139        N146   1.433       .  S
C140        C141   1.407       .  A
C140        H145   1.083       .  S
C141        C142   1.420       .  A
C142        N143   1.438       .  S
N143        H147   1.046       .  S
N143        H148   1.046       .  S
N146        H149   1.046       .  S
N146        H150   1.046       .  S
C151        C152   1.403       .  A
C151        C156   1.407       .  A
C151        H158   1.083       .  S
C152        C153   1.415       .  A
C153        C154   1.404       .  A
C153        N160   1.438       .  S
C154        C155   1.401       .  A
C154        H159   1.084       .  S
C155        C156   1.414       .  A
C156        N157   1.438       .  S
N157        H161   1.046       .  S
N157        H162   1.046       .  S
N160        H163   1.046       .  S
N160        H164   1.046       .  S
C165        C166   1.403       .  A
C165        C170   1.403       .  A
C165        H172   1.084       .  S
C166        C167   1.409       .  A
C167        C168   1.404       .  A
C167        N174   1.432       .  S
C168        C169   1.406       .  A
C168        H173   1.084       .  S
C169        C170   1.410       .  A
C170        N171   1.432       .  S
N171        H175   1.046       .  S
N171        H176   1.045       .  S
N174        H177   1.046       .  S
N174        H178   1.046       .  S
C179        C180   1.403       .  A
C179        C184   1.404       .  A
C179        H186   1.084       .  S
C180        C181   1.411       .  A
C181        C182   1.405       .  A
C181        N188   1.432       .  S
C182        C183   1.403       .  A
C182        H187   1.084       .  S
C183        C184   1.410       .  A
C184        N475   1.433       .  S
N185        C474   1.433       .  S
N185        H189   1.046       .  S
N185        H190   1.046       .  S
N188        H191   1.046       .  S
N188        H192   1.045       .  S
C193        C194   1.403       .  A
C193        C198   1.401       .  A
C193        H200   1.084       .  S
C194        C195   1.413       .  A
C195        C196   1.406       .  A
C195        N202   1.438       .  S
C196        C197   1.404       .  A
C196        H201   1.084       .  S
C197        C198   1.407       .  A
C198        N199   1.432       .  S
N199        H203   1.045       .  S
N199        H204   1.046       .  S
N202        H785   1.046       .  S
N202        H786   1.046       .  S
H205        N782   1.046       .  S
H206        N782   1.046       .  S
C207        C208   1.401       .  A
C207        C212   1.403       .  A
C207        H214   1.084       .  S
C208        C209   1.408       .  A
C209        C210   1.407       .  A
C209        N216   1.438       .  S
C210        C211   1.407       .  A
C210        H215   1.083       .  S
C211        C212   1.413       .  A
C212        N213   1.432       .  S
N213        H217   1.046       .  S
N213        H218   1.046       .  S
N216        H219   1.046       .  S
N216        H220   1.045       .  S
C221        C222   1.399       .  A
C221        C226   1.398       .  A
C221        H228   1.084       .  S
C222        C223   1.406       .  A
C223        C224   1.405       .  A
C223        N230   1.437       .  S
C224        C225   1.408       .  A
C224        H229   1.083       .  S
C225        C226   1.421       .  A
C226        N227   1.433   1_545  S
N227        H231   1.045       .  S
N227        H232   1.045       .  S
N230        H233   1.046       .  S
N230        H234   1.045       .  S
C235        C236   1.408       .  A
C235        C240   1.405       .  A
C235        H242   1.082       .  S
C236        C237   1.418       .  A
C237        C238   1.405       .  A
C237        N244   1.438       .  S
C238        C239   1.408       .  A
C238        H243   1.081       .  S
C239        C240   1.418       .  A
C240        N241   1.438       .  S
N241        H245   1.045       .  S
N241        H246   1.045       .  S
N244        H247   1.045       .  S
N244        H248   1.046       .  S
C249        C250   1.402       .  A
C249        C254   1.408       .  A
C249        H256   1.084       .  S
C250        C251   1.410       .  A
C251        C252   1.399       .  A
C251        N258   1.432       .  S
C252        C253   1.408       .  A
C252        H257   1.084       .  S
C253        C254   1.415       .  A
C254        N255   1.438   1_545  S
N255        H259   1.046       .  S
N255        H260   1.046       .  S
N258        H261   1.044       .  S
N258        H262   1.046       .  S
C263        C264   1.401       .  A
C263        C268   1.397       .  A
C263        H270   1.084       .  S
C264        C265   1.409       .  A
C265        C266   1.406       .  A
C265        N272   1.437       .  S
C266        C267   1.406       .  A
C266        H271   1.084       .  S
C267        C268   1.416       .  A
C268        N269   1.433       .  S
N269        H273   1.045       .  S
N269        H274   1.046       .  S
N272        H275   1.044       .  S
N272        H276   1.046       .  S
C277        C278   1.402       .  A
C277        C282   1.398       .  A
C277        H284   1.084       .  S
C278        C279   1.415       .  A
C279        C280   1.406       .  A
C279        N286   1.438       .  S
C280        C281   1.403       .  A
C280        H285   1.084       .  S
C281        C282   1.416       .  A
C282        N283   1.433       .  S
N283        H287   1.045       .  S
N283        H288   1.046   1_556  S
N286        H289   1.045       .  S
N286        H290   1.046       .  S
C291        C292   1.542       .  S
C291        C297   1.545       .  S
C291        C295   1.537       .  S
C291        C529   1.533       .  S
C292        H299   1.085       .  S
C292        C293   1.364       .  D
C293        C294   1.533       .  S
C293        C568   1.479       .  S
C294        C298   1.535       .  S
C294        C296   1.534       .  S
C294        H300   1.111       .  S
C295        H301   1.086       .  S
C295        C296   1.364       .  D
C296        C554   1.478       .  S
C297        H302   1.085       .  S
C297        C298   1.365       .  D
C298        C540   1.479       .  S
C303        C304   1.536       .  S
C303        C309   1.545       .  S
C303        C307   1.544       .  S
C303        C526   1.533       .  S
C304        H311   1.086       .  S
C304        C305   1.363       .  D
C305        C306   1.534       .  S
C305        C498   1.479       .  S
C306        C310   1.537       .  S
C306        C308   1.534       .  S
C306        H312   1.111       .  S
C307        H313   1.085       .  S
C307        C308   1.363       .  D
C308        C512   1.476       .  S
C309        H314   1.085       .  S
C309        C310   1.367       .  D
C310        C487   1.485       .  S
C315        C316   1.541       .  S
C315        C321   1.542       .  S
C315        C319   1.533       .  S
C315        C431   1.531       .  S
C316        H323   1.084       .  S
C316        C317   1.366       .  D
C317        C318   1.540       .  S
C317        C442   1.490       .  S
C318        C322   1.542       .  S
C318        C320   1.539       .  S
C318        H324   1.109       .  S
C319        H325   1.086       .  S
C319        C320   1.365       .  D
C320        C459   1.488       .  S
C321        H326   1.085       .  S
C321        C322   1.367       .  D
C322        C470   1.490       .  S
C327        C328   1.532       .  S
C327        C333   1.541       .  S
C327        C331   1.541       .  S
C327        C428   1.530       .  S
C328        H335   1.085       .  S
C328        C329   1.363       .  D
C329        C330   1.535       .  S
C329        C386   1.482       .  S
C330        C334   1.541       .  S
C330        C332   1.542       .  S
C330        H336   1.108       .  S
C331        H337   1.085       .  S
C331        C332   1.367       .  D
C332        C417   1.493       .  S
C333        H338   1.084       .  S
C333        C334   1.366       .  D
C334        C400   1.488       .  S
Zn339       O924   2.018   1_454  S
Zn339       O348   2.011       .  S
Zn340       O345   2.016       .  S
Zn340       O347   2.013   1_554  S
Zn340       O633   1.964       .  S
Zn341       O639   2.028       .  S
Zn341       O352   2.025   1_655  S
Zn341       O343   1.967   1_655  S
Zn342       O350   2.010       .  S
Zn342       O933   2.016   1_454  S
Zn342       O354   2.023   1_554  S
Zn342       O343   1.962       .  S
O343       Zn630   1.958   1_455  S
O344       Zn919   2.021   1_556  S
O344        C356   1.273       .  A
O345        C357   1.274       .  A
O346        C358   1.276       .  A
O347        C356   1.273       .  A
O348        C358   1.272       .  A
O349       Zn631   2.026       .  S
O349        C357   1.275       .  A
O350        C359   1.273       .  A
O351        C360   1.275       .  A
O352        C359   1.275       .  A
O353       Zn922   2.015   1_556  S
O353        C360   1.273       .  A
O354        C361   1.274       .  A
O355        C361   1.271       .  A
C356        C557   1.481       .  S
C357        C456   1.480       .  S
C358        C473   1.483       .  S
C359        C445   1.481       .  S
C360        C543   1.487       .  S
C361        C571   1.478       .  S
Zn362       O371   2.007       .  S
Zn362       O958   2.026   1_455  S
Zn362       O946   1.958       .  S
Zn363       O368   2.010       .  S
Zn363       O370   2.011       .  S
Zn363       O954   2.004   1_455  S
Zn363       O656   1.956       .  S
Zn364       O949   2.017   1_545  S
Zn364       O662   2.016       .  S
Zn364       O375   2.024   1_545  S
Zn364       O366   1.961   1_545  S
Zn365       O373   2.013       .  S
Zn365       O377   2.007       .  S
Zn365       O366   1.956       .  S
O366       Zn942   1.957       .  S
O366       Zn653   1.960   1_565  S
O367        C379   1.272       .  A
O368        C380   1.273       .  A
O369       Zn944   2.021   1_465  S
O369        C381   1.274       .  A
O370        C379   1.273       .  A
O371        C381   1.273       .  A
O372       Zn654   2.029   1_455  S
O372        C380   1.275       .  A
O373        C382   1.272       .  A
O374       Zn943   2.022       .  S
O374        C383   1.274       .  A
O375        C382   1.274       .  A
O376        C383   1.274       .  A
O377        C384   1.272       .  A
O378       Zn942   2.024       .  S
O378        C384   1.275       .  A
C379        C515   1.484       .  S
C380        C414   1.482       .  S
C381        C403   1.478       .  S
C382        C389   1.478       .  S
C383        C484   1.483       .  S
C384        C501   1.481       .  S
C385        C386   1.403       .  A
C385        C390   1.400       .  A
C385        H392   1.084       .  S
C386        C387   1.416       .  A
C387        C388   1.398       .  A
C387        N394   1.433       .  S
C388        C389   1.402       .  A
C388        H393   1.084       .  S
C389        C390   1.416       .  A
C390        N391   1.433       .  S
N391        H395   1.045       .  S
N391        H396   1.046       .  S
N394        H397   1.046       .  S
N394        H398   1.043       .  S
C399        C400   1.406       .  A
C399        C404   1.403       .  A
C399        H406   1.083       .  S
C400        C401   1.410       .  A
C401        C402   1.402       .  A
C401        N408   1.432       .  S
C402        C403   1.404       .  A
C402        H407   1.084       .  S
C403        C404   1.408       .  A
C404        N405   1.432       .  S
N405        H409   1.046   1_455  S
N405        H410   1.046       .  S
N408        H411   1.046       .  S
N408        H412   1.046       .  S
C413        C414   1.405       .  A
C413        C418   1.407       .  A
C413        H420   1.084       .  S
C414        C415   1.410       .  A
C415        C416   1.405       .  A
C415        N422   1.438       .  S
C416        C417   1.407       .  A
C416        H421   1.083       .  S
C417        C418   1.414       .  A
C418        N419   1.437       .  S
N419        H423   1.046       .  S
N419        H424   1.046       .  S
N422        H425   1.046       .  S
N422        H426   1.046       .  S
C427        C428   1.408       .  A
C427        C432   1.405       .  A
C427        H434   1.081       .  S
C428        C429   1.414       .  A
C429        C430   1.401       .  A
C429        N436   1.433       .  S
C430        C431   1.407       .  A
C430        H435   1.083       .  S
C431        C432   1.419       .  A
C432        N433   1.438       .  S
N433        H437   1.046       .  S
N433        H438   1.046       .  S
N436        H439   1.046       .  S
N436        H440   1.046       .  S
C441        C442   1.403       .  A
C441        C446   1.405       .  A
C441        H448   1.083       .  S
C442        C443   1.417       .  A
C443        C444   1.405       .  A
C443        N450   1.438       .  S
C444        C445   1.402       .  A
C444        H449   1.084       .  S
C445        C446   1.413       .  A
C446        N447   1.438       .  S
N447        H451   1.046       .  S
N447        H452   1.046       .  S
N450        H453   1.046       .  S
N450        H454   1.046       .  S
C455        C456   1.404       .  A
C455        C460   1.407       .  A
C455        H462   1.084       .  S
C456        C457   1.408       .  A
C457        C458   1.403       .  A
C457        N464   1.432       .  S
C458        C459   1.405       .  A
C458        H463   1.084       .  S
C459        C460   1.413       .  A
C460        N461   1.437       .  S
N461        H465   1.045       .  S
N461        H466   1.046       .  S
N464        H467   1.046       .  S
N464        H468   1.046   1_565  S
C469        C470   1.403       .  A
C469        C474   1.405       .  A
C469        H476   1.084       .  S
C470        C471   1.414       .  A
C471        C472   1.406       .  A
C471        N478   1.432       .  S
C472        C473   1.403       .  A
C472        H477   1.084       .  S
C473        C474   1.411       .  A
N475        H479   1.046       .  S
N475        H480   1.046       .  S
N478        H481   1.046       .  S
N478        H482   1.046       .  S
C483        C484   1.405       .  A
C483        C488   1.404       .  A
C483        H490   1.084       .  S
C484        C485   1.414       .  A
C485        C486   1.407       .  A
C485        N492   1.438       .  S
C486        C487   1.404       .  A
C486        H491   1.084       .  S
C487        C488   1.408       .  A
C488        N489   1.432       .  S
N489        H493   1.045       .  S
N489        H494   1.046       .  S
N492       H1075   1.046       .  S
N492       H1076   1.046       .  S
H495       N1072   1.046   1_655  S
H496       N1072   1.046       .  S
C497        C498   1.401       .  A
C497        C502   1.402       .  A
C497        H504   1.084       .  S
C498        C499   1.410       .  A
C499        C500   1.405       .  A
C499        N506   1.437       .  S
C500        C501   1.404       .  A
C500        H505   1.084       .  S
C501        C502   1.412       .  A
C502        N503   1.433       .  S
N503        H507   1.046       .  S
N503        H508   1.046       .  S
N506        H509   1.045       .  S
N506        H510   1.045       .  S
C511        C512   1.400       .  A
C511        C516   1.398       .  A
C511        H518   1.084       .  S
C512        C513   1.407       .  A
C513        C514   1.405       .  A
C513        N520   1.438       .  S
C514        C515   1.407       .  A
C514        H519   1.084       .  S
C515        C516   1.419       .  A
C516        N517   1.433       .  S
N517        H521   1.044       .  S
N517        H522   1.046       .  S
N520        H523   1.046       .  S
N520        H524   1.046       .  S
C525        C526   1.408       .  A
C525        C530   1.405       .  A
C525        H532   1.081       .  S
C526        C527   1.417       .  A
C527        C528   1.406       .  A
C527        N534   1.438       .  S
C528        C529   1.408       .  A
C528        H533   1.081       .  S
C529        C530   1.418       .  A
C530        N531   1.438       .  S
N531        H535   1.045       .  S
N531        H536   1.045       .  S
N534        H537   1.045       .  S
N534        H538   1.045       .  S
C539        C540   1.401       .  A
C539        C544   1.404       .  A
C539        H546   1.084       .  S
C540        C541   1.411       .  A
C541        C542   1.401       .  A
C541        N548   1.433       .  S
C542        C543   1.408       .  A
C542        H547   1.084       .  S
C543        C544   1.412       .  A
C544        N545   1.432       .  S
N545        H549   1.046       .  S
N545        H550   1.046       .  S
N548        H551   1.044       .  S
N548        H552   1.046       .  S
C553        C554   1.402       .  A
C553        C558   1.400       .  A
C553        H560   1.084       .  S
C554        C555   1.406       .  A
C555        C556   1.402       .  A
C555        N562   1.432       .  S
C556        C557   1.405       .  A
C556        H561   1.084       .  S
C557        C558   1.417       .  A
C558        N559   1.432       .  S
N559        H563   1.045       .  S
N559        H564   1.046       .  S
N562        H565   1.045       .  S
N562        H566   1.045       .  S
C567        C568   1.401       .  A
C567        C572   1.398       .  A
C567        H574   1.084       .  S
C568        C569   1.412       .  A
C569        C570   1.404       .  A
C569        N576   1.438       .  S
C570        C571   1.403       .  A
C570        H575   1.084       .  S
C571        C572   1.417       .  A
C572        N573   1.433       .  S
N573        H577   1.044       .  S
N573        H578   1.046   1_556  S
N576        H579   1.046       .  S
N576        H580   1.046       .  S
C581        C582   1.543       .  S
C581        C587   1.545       .  S
C581        C585   1.535       .  S
C581        C819   1.533       .  S
C582        H589   1.085       .  S
C582        C583   1.366       .  D
C583        C584   1.536       .  S
C583        C858   1.483       .  S
C584        C588   1.534       .  S
C584        C586   1.537       .  S
C584        H590   1.111       .  S
C585        H591   1.086       .  S
C585        C586   1.365       .  D
C586        C844   1.484       .  S
C587        H592   1.085       .  S
C587        C588   1.362       .  D
C588        C830   1.476       .  S
C593        C594   1.536       .  S
C593        C599   1.544       .  S
C593        C597   1.546       .  S
C593        C816   1.533       .  S
C594        H601   1.086       .  S
C594        C595   1.364       .  D
C595        C596   1.535       .  S
C595        C788   1.479       .  S
C596        C600   1.534       .  S
C596        C598   1.533       .  S
C596        H602   1.111       .  S
C597        H603   1.085       .  S
C597        C598   1.364       .  D
C598        C802   1.476       .  S
C599        H604   1.085       .  S
C599        C600   1.363       .  D
C600        C777   1.477       .  S
C605        C606   1.540       .  S
C605        C611   1.542       .  S
C605        C609   1.535       .  S
C605        C721   1.533       .  S
C606        H613   1.083       .  S
C606        C607   1.363       .  D
C607        C608   1.538       .  S
C607        C732   1.487       .  S
C608        C612   1.540       .  S
C608        C610   1.540       .  S
C608        H614   1.109       .  S
C609        H615   1.086       .  S
C609        C610   1.366       .  D
C610        C749   1.488       .  S
C611        H616   1.085       .  S
C611        C612   1.368       .  D
C612        C760   1.486       .  S
C617        C618   1.532       .  S
C617        C623   1.543       .  S
C617        C621   1.543       .  S
C617        C718   1.531       .  S
C618        H625   1.085       .  S
C618        C619   1.362       .  D
C619        C620   1.534       .  S
C619        C676   1.480       .  S
C620        C624   1.539       .  S
C620        C622   1.540       .  S
C620        H626   1.108       .  S
C621        H627   1.084       .  S
C621        C622   1.367       .  D
C622        C707   1.491       .  S
C623        H628   1.085       .  S
C623        C624   1.368       .  D
C624        C690   1.488       .  S
Zn629       O638   2.015       .  S
Zn629       O935   2.005   1_554  S
Zn629       O923   1.955       .  S
Zn630       O635   2.010       .  S
Zn630       O637   2.014   1_554  S
Zn630       O931   2.018   1_554  S
Zn631       O926   2.045       .  S
Zn631       O642   2.029   1_565  S
Zn631       O633   1.966       .  S
Zn632       O640   2.013       .  S
Zn632       O644   2.024   1_554  S
Zn632       O633   1.964   1_545  S
O633       Zn919   1.960       .  S
O634        C646   1.274       .  A
O635        C647   1.273       .  A
O636       Zn921   2.038       .  S
O636        C648   1.275       .  A
O637        C646   1.273       .  A
O638        C648   1.273       .  A
O639        C647   1.275       .  A
O640        C649   1.273       .  A
O641       Zn920   2.033   1_546  S
O641        C650   1.275       .  A
O642        C649   1.276       .  A
O643        C650   1.273       .  A
O644        C651   1.274       .  A
O645       Zn919   2.001   1_546  S
O645        C651   1.271       .  A
C646        C847   1.482       .  S
C647        C746   1.480       .  S
C648        C763   1.481       .  S
C649        C735   1.480       .  S
C650        C833   1.495       .  S
C651        C861   1.477       .  S
Zn652       O947   2.013       .  S
Zn652       O661   2.016       .  S
Zn653       O658   2.015       .  S
Zn653       O660   2.018       .  S
Zn654       O665   2.025       .  S
Zn654       O656   1.962   1_655  S
Zn655       O663   2.007       .  S
Zn655       O956   2.013       .  S
Zn655       O667   2.009       .  S
Zn655       O656   1.958   1_655  S
O657       Zn942   2.017   1_545  S
O657        C669   1.272       .  A
O658        C670   1.273       .  A
O659        C671   1.274       .  A
O660        C669   1.274       .  A
O661        C671   1.273       .  A
O662        C670   1.274       .  A
O663        C672   1.272       .  A
O664        C673   1.273       .  A
O665        C672   1.275       .  A
O666       Zn945   2.022   1_545  S
O666        C673   1.275       .  A
O667        C674   1.272       .  A
O668        C674   1.274       .  A
C669        C805   1.490       .  S
C670        C704   1.479       .  S
C671        C693   1.480       .  S
C672        C679   1.477       .  S
C673        C774   1.481       .  S
C674        C791   1.481       .  S
C675        C676   1.402       .  A
C675        C680   1.399       .  A
C675        H682   1.084       .  S
C676        C677   1.415       .  A
C677        C678   1.398       .  A
C677        N684   1.433       .  S
C678        C679   1.402       .  A
C678        H683   1.084       .  S
C679        C680   1.416       .  A
C680        N681   1.433       .  S
N681        H685   1.045       .  S
N681        H686   1.045       .  S
N684        H687   1.046       .  S
N684        H688   1.043       .  S
C689        C690   1.405       .  A
C689        C694   1.404       .  A
C689        H696   1.083       .  S
C690        C691   1.411       .  A
C691        C692   1.404       .  A
C691        N698   1.432       .  S
C692        C693   1.403       .  A
C692        H697   1.084       .  S
C693        C694   1.409       .  A
C694        N695   1.432       .  S
N695        H699   1.046       .  S
N695        H700   1.046       .  S
N698        H701   1.045       .  S
N698        H702   1.045       .  S
C703        C704   1.403       .  A
C703        C708   1.406       .  A
C703        H710   1.084       .  S
C704        C705   1.411       .  A
C705        C706   1.404       .  A
C705        N712   1.438       .  S
C706        C707   1.406       .  A
C706        H711   1.083       .  S
C707        C708   1.414       .  A
C708        N709   1.437       .  S
N709        H713   1.046       .  S
N709        H714   1.046       .  S
N712        H715   1.046       .  S
N712        H716   1.046       .  S
C717        C718   1.407       .  A
C717        C722   1.405       .  A
C717        H724   1.080       .  S
C718        C719   1.414       .  A
C719        C720   1.402       .  A
C719        N726   1.433       .  S
C720        C721   1.406       .  A
C720        H725   1.083       .  S
C721        C722   1.420       .  A
C722        N723   1.438       .  S
N723        H727   1.046       .  S
N723        H728   1.046       .  S
N726        H729   1.046       .  S
N726        H730   1.046       .  S
C731        C732   1.403       .  A
C731        C736   1.408       .  A
C731        H738   1.084       .  S
C732        C733   1.415       .  A
C733        C734   1.403       .  A
C733        N740   1.438       .  S
C734        C735   1.400       .  A
C734        H739   1.084       .  S
C735        C736   1.414       .  A
C736        N737   1.438       .  S
N737        H741   1.046       .  S
N737        H742   1.046       .  S
N740        H743   1.046       .  S
N740        H744   1.046       .  S
C745        C746   1.404       .  A
C745        C750   1.403       .  A
C745        H752   1.084       .  S
C746        C747   1.409       .  A
C747        C748   1.405       .  A
C747        N754   1.432       .  S
C748        C749   1.406       .  A
C748        H753   1.084       .  S
C749        C750   1.410       .  A
C750        N751   1.432       .  S
N751        H755   1.046       .  S
N751        H756   1.045       .  S
N754        H757   1.046       .  S
N754        H758   1.046       .  S
C759        C760   1.403       .  A
C759        C764   1.405       .  A
C759        H766   1.084       .  S
C760        C761   1.412       .  A
C761        C762   1.406       .  A
C761        N768   1.432       .  S
C762        C763   1.403       .  A
C762        H767   1.084       .  S
C763        C764   1.411       .  A
C764       N1055   1.433       .  S
N765       C1054   1.432       .  S
N765        H769   1.046       .  S
N765        H770   1.046       .  S
N768        H771   1.046       .  S
N768        H772   1.045       .  S
C773        C774   1.405       .  A
C773        C778   1.402       .  A
C773        H780   1.084       .  S
C774        C775   1.415       .  A
C775        C776   1.405       .  A
C775        N782   1.438   1_655  S
C776        C777   1.401       .  A
C776        H781   1.084       .  S
C777        C778   1.405       .  A
C778        N779   1.431       .  S
N779        H783   1.045       .  S
N779        H784   1.045       .  S
C787        C788   1.401       .  A
C787        C792   1.402       .  A
C787        H794   1.084       .  S
C788        C789   1.410       .  A
C789        C790   1.405       .  A
C789        N796   1.437       .  S
C790        C791   1.405       .  A
C790        H795   1.084       .  S
C791        C792   1.412       .  A
C792        N793   1.433       .  S
N793        H797   1.046       .  S
N793        H798   1.046       .  S
N796        H799   1.045       .  S
N796        H800   1.045       .  S
C801        C802   1.399       .  A
C801        C806   1.399       .  A
C801        H808   1.084       .  S
C802        C803   1.406       .  A
C803        C804   1.406       .  A
C803        N810   1.438       .  S
C804        C805   1.409       .  A
C804        H809   1.083       .  S
C805        C806   1.421       .  A
C806        N807   1.432   1_545  S
N807        H811   1.045       .  S
N807        H812   1.045       .  S
N810        H813   1.046       .  S
N810        H814   1.045       .  S
C815        C816   1.408       .  A
C815        C820   1.406       .  A
C815        H822   1.082       .  S
C816        C817   1.418       .  A
C817        C818   1.405       .  A
C817        N824   1.438       .  S
C818        C819   1.408       .  A
C818        H823   1.081       .  S
C819        C820   1.418       .  A
C820        N821   1.438       .  S
N821        H825   1.046       .  S
N821        H826   1.045       .  S
N824        H827   1.045       .  S
N824        H828   1.046       .  S
C829        C830   1.399       .  A
C829        C834   1.408       .  A
C829        H836   1.083       .  S
C830        C831   1.406       .  A
C831        C832   1.398       .  A
C831        N838   1.433       .  S
C832        C833   1.411       .  A
C832        H837   1.083       .  S
C833        C834   1.420       .  A
C834        N835   1.438   1_545  S
N835        H839   1.046       .  S
N835        H840   1.046   1_565  S
N838        H841   1.046       .  S
N838        H842   1.045       .  S
C843        C844   1.403       .  A
C843        C848   1.399       .  A
C843        H850   1.084       .  S
C844        C845   1.411       .  A
C845        C846   1.406       .  A
C845        N852   1.437       .  S
C846        C847   1.405       .  A
C846        H851   1.084       .  S
C847        C848   1.416       .  A
C848        N849   1.432       .  S
N849        H853   1.045   1_655  S
N849        H854   1.046       .  S
N852        H855   1.045       .  S
N852        H856   1.046       .  S
C857        C858   1.402       .  A
C857        C862   1.397       .  A
C857        H864   1.083       .  S
C858        C859   1.414       .  A
C859        C860   1.406       .  A
C859        N866   1.438       .  S
C860        C861   1.403       .  A
C860        H865   1.084       .  S
C861        C862   1.415       .  A
C862        N863   1.433       .  S
N863        H867   1.044       .  S
N863        H868   1.046   1_556  S
N866        H869   1.045       .  S
N866        H870   1.046       .  S
C871        C872   1.542       .  S
C871        C877   1.544       .  S
C871        C875   1.537       .  S
C871       C1109   1.532       .  S
C872        H879   1.085       .  S
C872        C873   1.365       .  D
C873        C874   1.538       .  S
C873       C1148   1.484       .  S
C874        C878   1.534       .  S
C874        C876   1.535       .  S
C874        H880   1.111       .  S
C875        H881   1.086       .  S
C875        C876   1.365       .  D
C876       C1134   1.482       .  S
C877        H882   1.085       .  S
C877        C878   1.362       .  D
C878       C1120   1.474       .  S
C883        C884   1.536       .  S
C883        C889   1.542       .  S
C883        C887   1.546       .  S
C883       C1106   1.532       .  S
C884        H891   1.086       .  S
C884        C885   1.364       .  D
C885        C886   1.535       .  S
C885       C1078   1.481       .  S
C886        C890   1.535       .  S
C886        C888   1.534       .  S
C886        H892   1.111       .  S
C887        H893   1.085       .  S
C887        C888   1.364       .  D
C888       C1092   1.477       .  S
C889        H894   1.084       .  S
C889        C890   1.364       .  D
C890       C1067   1.477       .  S
C895        C896   1.541       .  S
C895        C901   1.543       .  S
C895        C899   1.535       .  S
C895       C1011   1.534       .  S
C896        H903   1.083       .  S
C896        C897   1.365       .  D
C897        C898   1.540       .  S
C897       C1022   1.489       .  S
C898        C902   1.542       .  S
C898        C900   1.537       .  S
C898        H904   1.109       .  S
C899        H905   1.086       .  S
C899        C900   1.365       .  D
C900       C1039   1.488       .  S
C901        H906   1.085       .  S
C901        C902   1.368       .  D
C902       C1050   1.492       .  S
C907        C908   1.535       .  S
C907        C913   1.541       .  S
C907        C911   1.541       .  S
C907       C1008   1.533       .  S
C908        H915   1.085       .  S
C908        C909   1.366       .  D
C909        C910   1.536       .  S
C909        C966   1.485       .  S
C910        C914   1.540       .  S
C910        C912   1.540       .  S
C910        H916   1.109       .  S
C911        H917   1.084       .  S
C911        C912   1.364       .  D
C912        C997   1.489       .  S
C913        H918   1.085       .  S
C913        C914   1.367       .  D
C914        C980   1.486       .  S
Zn919       O928   2.021       .  S
Zn920       O925   2.015       .  S
Zn920       O927   2.019   1_554  S
Zn921       O932   2.019       .  S
Zn921       O923   1.967       .  S
Zn922       O930   2.008       .  S
Zn922       O934   2.025   1_554  S
Zn922       O923   1.962       .  S
O924        C936   1.273       .  A
O925        C937   1.274       .  A
O926        C938   1.276       .  A
O927        C936   1.274       .  A
O928        C938   1.273       .  A
O929        C937   1.275       .  A
O930        C939   1.273       .  A
O931        C940   1.273       .  A
O932        C939   1.275       .  A
O933        C940   1.274       .  A
O934        C941   1.274       .  A
O935        C941   1.271       .  A
C936       C1137   1.483       .  S
C937       C1036   1.481       .  S
C938       C1053   1.485       .  S
C939       C1025   1.478       .  S
C940       C1123   1.488       .  S
C941       C1151   1.477       .  S
Zn942       O951   2.010       .  S
Zn943       O948   2.013       .  S
Zn943       O950   2.025       .  S
Zn944       O955   2.028   1_545  S
Zn944       O946   1.963   1_645  S
Zn945       O953   2.020       .  S
Zn945       O957   2.023       .  S
Zn945       O946   1.961   1_655  S
O947        C959   1.272       .  A
O948        C960   1.273       .  A
O949        C961   1.273       .  A
O950        C959   1.275       .  A
O951        C961   1.273       .  A
O952        C960   1.276       .  A
O953        C962   1.273       .  A
O954        C963   1.272       .  A
O955        C962   1.275       .  A
O956        C963   1.273       .  A
O957        C964   1.274       .  A
O958        C964   1.275       .  A
C959       C1095   1.490       .  S
C960        C994   1.480       .  S
C961        C983   1.478       .  S
C962        C969   1.481       .  S
C963       C1064   1.477       .  S
C964       C1081   1.486       .  S
C965        C966   1.404       .  A
C965        C970   1.401       .  A
C965        H972   1.084       .  S
C966        C967   1.415       .  A
C967        C968   1.399       .  A
C967        N974   1.433       .  S
C968        C969   1.403       .  A
C968        H973   1.084       .  S
C969        C970   1.416       .  A
C970        N971   1.433       .  S
N971        H975   1.045       .  S
N971        H976   1.045       .  S
N974        H977   1.046       .  S
N974        H978   1.043       .  S
C979        C980   1.405       .  A
C979        C984   1.406       .  A
C979        H986   1.083       .  S
C980        C981   1.409       .  A
C981        C982   1.401       .  A
C981        N988   1.432       .  S
C982        C983   1.403       .  A
C982        H987   1.084       .  S
C983        C984   1.412       .  A
C984        N985   1.438       .  S
N985        H989   1.046       .  S
N985        H990   1.045       .  S
N988        H991   1.046       .  S
N988        H992   1.046       .  S
C993        C994   1.405       .  A
C993        C998   1.407       .  A
C993       H1000   1.084       .  S
C994        C995   1.410       .  A
C995        C996   1.404       .  A
C995       N1002   1.438       .  S
C996        C997   1.406       .  A
C996       H1001   1.083       .  S
C997        C998   1.412       .  A
C998        N999   1.438       .  S
N999       H1003   1.046       .  S
N999       H1004   1.046       .  S
N1002      H1005   1.046       .  S
N1002      H1006   1.046       .  S
C1007      C1008   1.408       .  A
C1007      C1012   1.405       .  A
C1007      H1014   1.080       .  S
C1008      C1009   1.414       .  A
C1009      C1010   1.403       .  A
C1009      N1016   1.432       .  S
C1010      C1011   1.408       .  A
C1010      H1015   1.083       .  S
C1011      C1012   1.420       .  A
C1012      N1013   1.438       .  S
N1013      H1017   1.046       .  S
N1013      H1018   1.045       .  S
N1016      H1019   1.046       .  S
N1016      H1020   1.046       .  S
C1021      C1022   1.403       .  A
C1021      C1026   1.405       .  A
C1021      H1028   1.083       .  S
C1022      C1023   1.417       .  A
C1023      C1024   1.404       .  A
C1023      N1030   1.438       .  S
C1024      C1025   1.401       .  A
C1024      H1029   1.084       .  S
C1025      C1026   1.412       .  A
C1026      N1027   1.438       .  S
N1027      H1031   1.046       .  S
N1027      H1032   1.046       .  S
N1030      H1033   1.046       .  S
N1030      H1034   1.046       .  S
C1035      C1036   1.405       .  A
C1035      C1040   1.407       .  A
C1035      H1042   1.084       .  S
C1036      C1037   1.409       .  A
C1037      C1038   1.403       .  A
C1037      N1044   1.432       .  S
C1038      C1039   1.405       .  A
C1038      H1043   1.084       .  S
C1039      C1040   1.413       .  A
C1040      N1041   1.438       .  S
N1041      H1045   1.046       .  S
N1041      H1046   1.046       .  S
N1044      H1047   1.046       .  S
N1044      H1048   1.046   1_565  S
C1049      C1050   1.404       .  A
C1049      C1054   1.406       .  A
C1049      H1056   1.084       .  S
C1050      C1051   1.413       .  A
C1051      C1052   1.406       .  A
C1051      N1058   1.432       .  S
C1052      C1053   1.403       .  A
C1052      H1057   1.084       .  S
C1053      C1054   1.412       .  A
N1055      H1059   1.045       .  S
N1055      H1060   1.046       .  S
N1058      H1061   1.046       .  S
N1058      H1062   1.046       .  S
C1063      C1064   1.404       .  A
C1063      C1068   1.401       .  A
C1063      H1070   1.084       .  S
C1064      C1065   1.414       .  A
C1065      C1066   1.404       .  A
C1065      N1072   1.438   1_655  S
C1066      C1067   1.402       .  A
C1066      H1071   1.084       .  S
C1067      C1068   1.406       .  A
C1068      N1069   1.432       .  S
N1069      H1073   1.045       .  S
N1069      H1074   1.045       .  S
C1077      C1078   1.401       .  A
C1077      C1082   1.403       .  A
C1077      H1084   1.084       .  S
C1078      C1079   1.409       .  A
C1079      C1080   1.408       .  A
C1079      N1086   1.438       .  S
C1080      C1081   1.407       .  A
C1080      H1085   1.083       .  S
C1081      C1082   1.413       .  A
C1082      N1083   1.432       .  S
N1083      H1087   1.046       .  S
N1083      H1088   1.046       .  S
N1086      H1089   1.046       .  S
N1086      H1090   1.045       .  S
C1091      C1092   1.399       .  A
C1091      C1096   1.399       .  A
C1091      H1098   1.084       .  S
C1092      C1093   1.406       .  A
C1093      C1094   1.406       .  A
C1093      N1100   1.438       .  S
C1094      C1095   1.409       .  A
C1094      H1099   1.083       .  S
C1095      C1096   1.421       .  A
C1096      N1097   1.433       .  S
N1097      H1101   1.045       .  S
N1097      H1102   1.045       .  S
N1100      H1103   1.046       .  S
N1100      H1104   1.045       .  S
C1105      C1106   1.408       .  A
C1105      C1110   1.405       .  A
C1105      H1112   1.082       .  S
C1106      C1107   1.416       .  A
C1107      C1108   1.402       .  A
C1107      N1114   1.432       .  S
C1108      C1109   1.408       .  A
C1108      H1113   1.081       .  S
C1109      C1110   1.418       .  A
C1110      N1111   1.438       .  S
N1111      H1115   1.045       .  S
N1111      H1116   1.045       .  S
N1114      H1117   1.046       .  S
N1114      H1118   1.046       .  S
C1119      C1120   1.399       .  A
C1119      C1124   1.403       .  A
C1119      H1126   1.084       .  S
C1120      C1121   1.409       .  A
C1121      C1122   1.399       .  A
C1121      N1128   1.432       .  S
C1122      C1123   1.408       .  A
C1122      H1127   1.084       .  S
C1123      C1124   1.415       .  A
C1124      N1125   1.432       .  S
N1125      H1129   1.046       .  S
N1125      H1130   1.046       .  S
N1128      H1131   1.045       .  S
N1128      H1132   1.046       .  S
C1133      C1134   1.402       .  A
C1133      C1138   1.399       .  A
C1133      H1140   1.084       .  S
C1134      C1135   1.409       .  A
C1135      C1136   1.406       .  A
C1135      N1142   1.437       .  S
C1136      C1137   1.406       .  A
C1136      H1141   1.084       .  S
C1137      C1138   1.417       .  A
C1138      N1139   1.433       .  S
N1139      H1143   1.045   1_655  S
N1139      H1144   1.045   1_655  S
N1142      H1145   1.045       .  S
N1142      H1146   1.045       .  S
C1147      C1148   1.402       .  A
C1147      C1152   1.398       .  A
C1147      H1154   1.084       .  S
C1148      C1149   1.415       .  A
C1149      C1150   1.406       .  A
C1149      N1156   1.438       .  S
C1150      C1151   1.402       .  A
C1150      H1155   1.084       .  S
C1151      C1152   1.415       .  A
C1152      N1153   1.433       .  S
N1153      H1157   1.045       .  S
N1153      H1158   1.046   1_556  S
N1156      H1159   1.045       .  S
N1156      H1160   1.046       .  S
