geometry optimzed in LAMMPS
_audit_creation_date              2020-12-01 
_audit_creation_method            'lammps2cif' 
_symmetry_space_group_name_H-M    'P1' 
_symmetry_Int_Tables_number       1 
_symmetry_cell_setting            triclinic 
loop_ 
_symmetry_equiv_pos_as_xyz 
  x,y,z 
_cell_length_a                    45.57545392 
_cell_length_b                    45.61924183281028 
_cell_length_c                    37.34720467728748 
_cell_angle_alpha                 89.8405439753487 
_cell_angle_beta                  89.84769831118577 
_cell_angle_gamma                 125.51868903411464 
loop_ 
_atom_site_label 
_atom_site_type_symbol 
_atom_site_fract_x 
_atom_site_fract_y 
_atom_site_fract_z 
_atom_site_charge 
C1          C  0.53941657  0.84692255  0.49859186     0.80200
N2          N  0.53689853  0.86043526  0.46709324    -0.78100
C3          C  0.53109298  0.88645656  0.46696730     0.82700
N4          N  0.53036979  0.89823505  0.99897573    -0.78000
C5          C  0.53211705  0.88429292  0.03019796     0.82800
N6          N  0.53994515  0.85978160  0.02942465    -0.79700
C7          C  0.30995427  0.89918442  0.49821958     0.80200
N8          N  0.32855506  0.91122486  0.46670695    -0.78100
C9          C  0.36414074  0.93871452  0.46618988     0.82700
N10         N  0.37809485  0.95597657  0.99743758    -0.78000
C11         C  0.36183833  0.94181340  0.02956153     0.82800
N12         N  0.32681628  0.91257356  0.03024735    -0.79700
O13         O  0.44219646  0.98441914  0.30869697    -0.75300
O14         O  0.48918241  0.01196291  0.34779290    -0.54200
C15         C  0.45542562  0.99276370  0.34050498     0.78400
O16         O  0.53073756  0.94577251  0.18894714    -0.59900
O17         O  0.53300577  0.98400347  0.14777331    -0.52900
C18         C  0.53046053  0.95535451  0.15654998     0.70500
O19         O  0.53146669  0.94980514  0.30997435    -0.74400
O20         O  0.53600091  0.99080903  0.34867803    -0.55000
C21         C  0.53220290  0.96126140  0.34166806     0.76500
O22         O  0.44048465  0.98644618  0.18748653    -0.59600
O23         O  0.48604251  0.00913487  0.14652092    -0.52700
C24         C  0.45267376  0.99294092  0.15510470     0.73000
Zr25       Zr  0.46646824  0.99929443  0.24768990     2.54700
O26         O  0.41601021  0.93589021  0.24809494    -0.80200
O27         O  0.42747253  0.01957415  0.24947560    -0.93600
Zr28       Zr  0.53335815  0.96935769  0.24859668     2.64700
O29         O  0.47997891  0.90742071  0.25238897    -0.98500
O30         O  0.57454358  0.95170360  0.24912040    -0.80600
O31         O  0.50028458  0.98517022  0.28224463    -0.83900
O32         O  0.49834965  0.98209647  0.21403372    -2.18700
O33         O  0.55138708  0.12183287  0.18285542    -0.67300
O34         O  0.54800415  0.08148772  0.14407166    -0.51900
C35         C  0.55062074  0.11043956  0.15114303     0.71400
O36         O  0.64370070  0.08366186  0.30646432    -0.60200
O37         O  0.59791325  0.06291928  0.34676570    -0.52200
C38         C  0.63106884  0.07731233  0.33872714     0.73200
O39         O  0.64137321  0.08001287  0.18495236    -0.71600
O40         O  0.59467206  0.05615489  0.14572588    -0.50300
C41         C  0.62804279  0.07179428  0.15317974     0.74600
O42         O  0.55591030  0.12802592  0.30334222    -0.67000
O43         O  0.55240650  0.08935517  0.34486046    -0.54200
C44         C  0.55600552  0.11851826  0.33582813     0.73000
Zr45       Zr  0.55184398  0.10323053  0.24404838     2.77500
O46         O  0.60678345  0.16416484  0.23944387    -0.97700
O47         O  0.51327734  0.12397590  0.24246254    -0.78500
Zr48       Zr  0.61837745  0.07309064  0.24582654     2.70100
O49         O  0.66515531  0.13763254  0.24316584    -0.79800
O50         O  0.66144817  0.05778277  0.24662555    -0.98900
Zr51       Zr  0.54355368  0.03870588  0.31316705     2.21500
Zr52       Zr  0.54096191  0.03383026  0.17981851     2.11100
O53         O  0.58500843  0.08747323  0.21051145    -2.47600
O54         O  0.58652157  0.09046628  0.27931926    -0.79600
O55         O  0.50801849  0.05045267  0.21210598    -0.71800
O56         O  0.57658437  0.02188176  0.28093919    -2.32700
O57         O  0.50889582  0.05270637  0.27978617    -2.28900
O58         O  0.57579263  0.02012855  0.21324180    -0.73500
H59         H  0.48190531  0.96194025  0.19894793     0.78500
H60         H  0.58936440  0.01624459  0.29679669     0.79500
H61         H  0.60097193  0.10657487  0.19390971     0.81800
H62         H  0.49642472  0.05895798  0.29542358     0.79400
H63         H  0.59031122  0.96389266  0.22795243     0.42400
H64         H  0.65258435  0.03875348  0.22833148     0.41400
H65         H  0.68637361  0.14069922  0.25452477     0.41100
H66         H  0.59842084  0.17990429  0.24045912     0.39000
H67         H  0.49409115  0.10780826  0.22519378     0.42100
H68         H  0.43691198  0.03798672  0.23026500     0.36900
H69         H  0.39498446  0.93565284  0.24088706     0.43000
H70         H  0.46247526  0.90892095  0.26650892     0.39400
H71         H  0.61929815  0.16823514  0.26248073     0.44400
H72         H  0.43384825  0.03344654  0.27195064     0.43100
H73         H  0.46997641  0.90151265  0.22786753     0.43200
H74         H  0.68385671  0.07906389  0.23621083     0.43600
C75         C  0.54490389  0.22806883  0.49447673     0.80200
N76         N  0.55011521  0.21709830  0.46258593    -0.78100
C77         C  0.55883485  0.19315476  0.46185303     0.82700
N78         N  0.55390795  0.17401219  0.99455610    -0.78000
C79         C  0.54829552  0.18395718  0.02650633     0.82800
N80         N  0.54006851  0.20814326  0.02719367    -0.79700
C81         C  0.71770354  0.12541283  0.02734926     0.80200
N82         N  0.75270570  0.15419961  0.02727317    -0.78100
C83         C  0.76981069  0.16370471  0.49820528     0.82700
N84         N  0.75230833  0.14874065  0.46681684    -0.78000
C85         C  0.71765806  0.11895053  0.46666972     0.82800
N86         N  0.70054816  0.11232577  0.99574928    -0.79700
O87         O  0.13100651  0.55867292  0.30934696    -0.75300
O88         O  0.08957045  0.55136151  0.34980072    -0.54200
C89         C  0.12015401  0.55761951  0.34153980     0.78400
O90         O  0.07559469  0.63495919  0.18676016    -0.59900
O91         O  0.05659423  0.58972423  0.14667257    -0.52900
C92         C  0.06944081  0.62245498  0.15471293     0.70500
O93         O  0.08463438  0.63858994  0.30715612    -0.74400
O94         O  0.06062232  0.59319382  0.34852974    -0.55000
C95         C  0.07739076  0.62647601  0.33950110     0.76500
O96         O  0.13115781  0.55818334  0.18808822    -0.59600
O97         O  0.09016545  0.55133667  0.14768221    -0.52700
C98         C  0.12069181  0.55766305  0.15592662     0.73000
Zr99       Zr  0.10747939  0.55187762  0.24872390     2.54700
O100        O  0.16954829  0.60520040  0.24804210    -0.80200
O101        O  0.12698039  0.51220776  0.24922760    -0.93600
Zr102      Zr  0.06966691  0.61215900  0.24748198     2.64700
O103        O  0.13077418  0.66684888  0.24250077    -0.98500
O104        O  0.04327015  0.64558730  0.25122599    -0.80600
O105        O  0.08944756  0.58314973  0.28226910    -0.83900
O106        O  0.08949953  0.58262914  0.21401927    -2.18700
O107        O  0.99679794  0.43744220  0.18950506    -0.67300
O108        O  0.01761218  0.48281206  0.14864905    -0.51900
C109        C  0.00326069  0.44976929  0.15711898     0.71400
O110        O  0.94570262  0.51939142  0.30843814    -0.60200
O111        O  0.98691574  0.52719276  0.34915809    -0.52200
C112        C  0.95657943  0.52128278  0.34068483     0.73200
O113        O  0.94685760  0.51975097  0.18774203    -0.71600
O114        O  0.98755543  0.52542322  0.14748748    -0.50300
C115        C  0.95773638  0.52091026  0.15555070     0.74600
O116        O  0.99441180  0.43840036  0.31171547    -0.67000
O117        O  0.01506253  0.48472259  0.35078863    -0.54200
C118        C  0.00041189  0.45143224  0.34370403     0.73000
Zr119      Zr  0.00666564  0.46259521  0.25007987     2.77500
O120        O  0.94513988  0.40847165  0.24750657    -0.97700
O121        O  0.03374324  0.42974773  0.25303764    -0.78500
Zr122      Zr  0.96881908  0.52282622  0.24836292     2.70100
O123        O  0.90852817  0.46674109  0.24832044    -0.79800
O124        O  0.94669064  0.56020503  0.24798507    -0.98900
Zr125      Zr  0.03816810  0.53843166  0.31597443     2.21500
Zr126      Zr  0.03821177  0.53694725  0.18141065     2.11100
O127        O  0.98713975  0.49178261  0.21506191    -2.47600
O128        O  0.98700521  0.49252990  0.28354086    -0.79600
O129        O  0.05730566  0.50647719  0.21486896    -0.71800
O130        O  0.01890019  0.56842909  0.28212782    -2.32700
O131        O  0.05732770  0.50737455  0.28376827    -2.28900
O132        O  0.01902008  0.56761113  0.21377907    -0.73500
H133        H  0.10875639  0.59988247  0.19820952     0.78500
H134        H  0.01172891  0.58024295  0.29748769     0.79500
H135        H  0.96791901  0.47455425  0.19943794     0.81800
H136        H  0.06453417  0.49610983  0.29991019     0.79400
H137        H  0.02592582  0.63634034  0.23118760     0.42400
H138        H  0.96032049  0.57783588  0.22842059     0.41400
H139        H  0.91145530  0.44902544  0.23689045     0.41100
H140        H  0.94736897  0.38846429  0.25212947     0.39000
H141        H  0.05058992  0.43889486  0.23240400     0.42100
H142        H  0.11497819  0.49632526  0.22829949     0.36900
H143        H  0.16833098  0.62424472  0.25890417     0.43000
H144        H  0.13994484  0.66498883  0.21917814     0.39400
H145        H  0.93323962  0.40946097  0.26922198     0.44400
H146        H  0.11471264  0.49623798  0.27023776     0.43100
H147        H  0.12756649  0.68635004  0.23898276     0.43200
H148        H  0.92173196  0.54426403  0.23889472     0.43600
C149        C  0.23301437  0.55342746  0.50020159     0.80200
N150        N  0.22139792  0.55834332  0.46865517    -0.78100
C151        C  0.19746350  0.56704624  0.46824898     0.82700
N152        N  0.18488940  0.57034124  0.49981123    -0.78000
C153        C  0.19766826  0.56837286  0.02852217     0.82800
N154        N  0.22096023  0.55898667  0.02794453    -0.79700
C155        C  0.95362909  0.35902811  0.03167325     0.80200
N156        N  0.96151817  0.37668297  0.50238606    -0.78100
C157        C  0.94806528  0.36049482  0.47029005     0.82700
N158        N  0.91808574  0.32614296  0.46976945    -0.78000
C159        C  0.90165879  0.30801363  0.50065756     0.82800
N160        N  0.92424726  0.32413656  0.03036004    -0.79700
C161        C  0.84293958  0.53024798  0.49724188     0.80200
N162        N  0.85501856  0.52324479  0.03168943    -0.78100
C163        C  0.88008242  0.51603029  0.03036976     0.82700
N164        N  0.89455250  0.51828143  0.49618048    -0.78000
C165        C  0.88094210  0.52029975  0.46485447     0.82800
N166        N  0.85511604  0.52640368  0.46548174    -0.79700
C167        C  0.16637293  0.76600295  0.49825296     0.80200
N168        N  0.15295698  0.74945213  0.46615382    -0.78100
C169        C  0.12245078  0.71535987  0.46456889     0.82700
N170        N  0.10583079  0.69760207  0.49545027    -0.78000
C171        C  0.11634481  0.71256943  0.02893053     0.82800
N172        N  0.14779002  0.74603989  0.02985522    -0.79700
O173        O  0.62523683  0.55561292  0.19670206    -0.75300
O174        O  0.58417709  0.54710887  0.15542963    -0.54200
C175        C  0.61483721  0.55396854  0.16430167     0.78400
O176        O  0.49605235  0.43111201  0.31403267    -0.59900
O177        O  0.50810637  0.47431681  0.35406157    -0.52900
C178        C  0.49913177  0.44270035  0.34627907     0.70500
O179        O  0.50555960  0.43699548  0.19233614    -0.74400
O180        O  0.51674852  0.48074842  0.15325712    -0.55000
C181        C  0.51022435  0.44994751  0.16041119     0.76500
O182        O  0.62222589  0.55496225  0.31758200    -0.59600
O183        O  0.57689269  0.54054629  0.35613207    -0.52700
C184        C  0.60882667  0.54966864  0.34932453     0.73000
Zr185      Zr  0.60077692  0.55073235  0.25648655     2.54700
O186        O  0.62718519  0.51724254  0.25848646    -0.80200
O187        O  0.65921312  0.60893324  0.25840983    -0.93600
Zr188      Zr  0.50345111  0.45601247  0.25326703     2.64700
O189        O  0.52885547  0.42150303  0.25338143    -0.98500
O190        O  0.44228481  0.40171825  0.24825735    -0.80600
O191        O  0.55341275  0.50430610  0.22101526    -0.83900
O192        O  0.55124935  0.50219274  0.28868953    -2.18700
O193        O  0.56454924  0.62648180  0.31608949    -0.67300
O194        O  0.54633460  0.58084339  0.35588480    -0.51900
C195        C  0.55947881  0.61379631  0.34813834     0.71400
O196        O  0.43833735  0.51172918  0.19207856    -0.60200
O197        O  0.48002109  0.51798366  0.15274504    -0.52200
C198        C  0.45016989  0.51367213  0.16013015     0.73200
O199        O  0.43027480  0.49785363  0.31282874    -0.71600
O200        O  0.47306141  0.51065813  0.35394794    -0.50300
C201        C  0.44127941  0.50074088  0.34524515     0.74600
O202        O  0.56160965  0.62812247  0.19470324    -0.67000
O203        O  0.54957928  0.58507538  0.15445522    -0.54200
C204        C  0.55923208  0.61688099  0.16244466     0.73000
Zr205      Zr  0.55409126  0.60294858  0.25518028     2.77500
O206        O  0.52322995  0.63200354  0.25918434    -0.97700
O207        O  0.61327822  0.66026628  0.25278378    -0.78500
Zr208      Zr  0.45657844  0.50803312  0.25274970     2.70100
O209        O  0.42494038  0.53619207  0.25869129    -0.79800
O210        O  0.40047587  0.44838278  0.24533107    -0.98900
Zr211      Zr  0.53090852  0.53154575  0.18777241     2.21500
Zr212      Zr  0.52655670  0.52783821  0.32117307     2.11100
O213        O  0.50397245  0.55513277  0.28798031    -2.47600
O214        O  0.50594566  0.55680429  0.22014243    -0.79600
O215        O  0.57699463  0.57671137  0.28997600    -0.71800
O216        O  0.48027226  0.48214979  0.21863891    -2.32700
O217        O  0.57956053  0.57862513  0.22179285    -2.28900
O218        O  0.47816830  0.48040784  0.28727421    -0.73500
H219        H  0.55981392  0.49186936  0.30447244     0.78500
H220        H  0.46241061  0.46469528  0.20197823     0.79500
H221        H  0.49471475  0.56471957  0.30380688     0.81800
H222        H  0.59864305  0.59700716  0.20644705     0.79400
H223        H  0.42696413  0.40820344  0.25914670     0.42400
H224        H  0.38191921  0.44992561  0.25707573     0.41400
H225        H  0.43919284  0.55576698  0.27624874     0.41100
H226        H  0.54058017  0.65642032  0.24910437     0.39000
H227        H  0.60932629  0.67798596  0.26221822     0.42100
H228        H  0.65445348  0.62484911  0.27102203     0.36900
H229        H  0.61300268  0.49750369  0.24107641     0.43000
H230        H  0.54904350  0.43409804  0.27058640     0.39400
H231        H  0.50384030  0.61954524  0.24112874     0.44400
H232        H  0.66429053  0.61779460  0.23336471     0.43100
H233        H  0.51045316  0.39838049  0.26525212     0.43200
H234        H  0.39489622  0.44643647  0.21948059     0.43600
C235        C  0.50665761  0.32961035  0.50358253     0.80200
N236        N  0.50196866  0.34262222  0.47283939    -0.78100
C237        C  0.49413086  0.36716184  0.47403469     0.82700
N238        N  0.49104461  0.37849213  0.50635810    -0.78000
C239        C  0.50557464  0.37367177  0.03400600     0.82800
N240        N  0.51072222  0.34716223  0.03394737    -0.79700
C241        C  0.33268647  0.51233534  0.50408336     0.80200
N242        N  0.35086648  0.51708305  0.03248259    -0.78100
C243        C  0.37574861  0.50958586  0.03249161     0.82700
N244        N  0.38099484  0.49578358  0.50236620    -0.78000
C245        C  0.36682272  0.49753626  0.47128906     0.82800
N246        N  0.34271924  0.50585728  0.47238540    -0.79700
C247        C  0.73112329  0.55416564  0.50432864     0.80200
N248        N  0.71472393  0.55425614  0.47386462    -0.78100
C249        C  0.68790268  0.55898193  0.47558085     0.82700
N250        N  0.67796935  0.56383739  0.50793946    -0.78000
C251        C  0.69384535  0.56401113  0.03915746     0.82800
N252        N  0.71974054  0.55803478  0.03850370    -0.79700
C253        C  0.56256176  0.73441884  0.50307300     0.80200
N254        N  0.56547479  0.72072416  0.47197039    -0.78100
C255        C  0.57203254  0.69524930  0.47247034     0.82700
N256        N  0.57544620  0.68354409  0.50447839    -0.78000
C257        C  0.57610062  0.69802343  0.03494031     0.82800
N258        N  0.57289614  0.72578449  0.03351393    -0.79700
C259        C  0.37998024  0.49284511  0.43682889    -0.05500
C260        C  0.39923037  0.47751700  0.43751483    -0.32900
C261        C  0.41773935  0.47829054  0.40731802     0.36400
C262        C  0.41648814  0.49357677  0.37509071    -0.05800
C263        C  0.39463530  0.50598116  0.37325408    -0.32800
C264        C  0.37680141  0.50614824  0.40390371     0.36300
H265        H  0.40139794  0.46619759  0.46204606     0.16600
O266        O  0.43766221  0.46463963  0.40980986    -0.60300
H267        H  0.39334588  0.51784593  0.34866659     0.16600
O268        O  0.35801006  0.52106074  0.40163084    -0.60400
H269        H  0.37597155  0.54707339  0.40645543     0.43600
H270        H  0.45966109  0.48306838  0.42311468     0.43600
C271        C  0.39243743  0.50847628  0.06626215    -0.05500
C272        C  0.39195421  0.52558244  0.09735331    -0.32900
C273        C  0.40950109  0.52650774  0.12871173     0.36400
C274        C  0.42830434  0.51056923  0.12917936    -0.05800
C275        C  0.42805220  0.49282571  0.09850410    -0.32800
C276        C  0.41038080  0.49153321  0.06743464     0.36300
H277        H  0.37871279  0.53905940  0.09716375     0.16600
O278        O  0.40993022  0.54488647  0.15793406    -0.60300
H279        H  0.44185923  0.47989254  0.09850202     0.16600
O280        O  0.41026020  0.47285175  0.03863702    -0.60400
H281        H  0.43443570  0.48897544  0.02743216     0.43600
H282        H  0.38638997  0.52806393  0.17004857     0.43600
C283        C  0.57342488  0.67832925  0.43904877    -0.05500
C284        C  0.58059867  0.65224679  0.44167852    -0.32900
C285        C  0.57828407  0.63264975  0.41187194     0.36400
C286        C  0.56812404  0.63836936  0.37845262    -0.05800
C287        C  0.56350242  0.66612256  0.37502075    -0.32800
C288        C  0.56617175  0.68611066  0.40489154     0.36300
H289        H  0.58730536  0.64622142  0.46717143     0.16600
O290        O  0.58531914  0.60739613  0.41596279    -0.60300
H291        H  0.55616864  0.67130054  0.34941745     0.16600
O292        O  0.55994536  0.71190357  0.40048004    -0.60400
H293        H  0.58362121  0.73409122  0.39356288     0.43600
H294        H  0.61109179  0.62001212  0.40936006     0.43600
C295        C  0.56792091  0.64164111  0.13181908    -0.05500
C296        C  0.56018849  0.66729204  0.13311335    -0.32900
C297        C  0.56395965  0.68717957  0.10232350     0.36400
C298        C  0.57586679  0.68164886  0.06963267    -0.05800
C299        C  0.58595156  0.65789156  0.06942768    -0.32800
C300        C  0.58173801  0.63789789  0.09972421     0.36300
H301        H  0.54962599  0.67076017  0.15750818     0.16600
O302        O  0.55397668  0.71027201  0.10412860    -0.60300
H303        H  0.59625406  0.65375261  0.04523800     0.16600
O304        O  0.59130437  0.61456314  0.09755393    -0.60400
H305        H  0.57118830  0.59314574  0.08484443     0.43600
H306        H  0.57477106  0.73251006  0.11512683     0.43600
C307        C  0.63082876  0.55367141  0.38072461    -0.05500
C308        C  0.61811040  0.55355617  0.41503066    -0.32900
C309        C  0.63623352  0.55526808  0.44571815     0.36400
C310        C  0.66850421  0.55763108  0.44297438    -0.05800
C311        C  0.68160420  0.55806889  0.40866811    -0.32800
C312        C  0.66302096  0.55596053  0.37772545     0.36300
H313        H  0.59342963  0.55161418  0.41846117     0.16600
O314        O  0.62161224  0.55425538  0.47825280    -0.60300
H315        H  0.70621820  0.55979724  0.40571147     0.16600
O316        O  0.67643784  0.55574052  0.34489746    -0.60400
H317        H  0.66554963  0.53000725  0.33991282     0.43600
H318        H  0.60414275  0.52830175  0.48398645     0.43600
C319        C  0.63965109  0.56074206  0.13467211    -0.05500
C320        C  0.63888437  0.57744686  0.10362062    -0.32900
C321        C  0.65863441  0.58124317  0.07328440     0.36400
C322        C  0.67930770  0.56729321  0.07321347    -0.05800
C323        C  0.68217205  0.55267302  0.10512676    -0.32800
C324        C  0.66267513  0.54955787  0.13585738     0.36300
H325        H  0.62232770  0.58714009  0.10262151     0.16600
O326        O  0.65766537  0.59884800  0.04389656    -0.60300
H327        H  0.69801727  0.54193490  0.10580748     0.16600
O328        O  0.66411638  0.53299834  0.16580712    -0.60400
H329        H  0.68651468  0.55189354  0.17825030     0.43600
H330        H  0.63267086  0.58314772  0.03469390     0.43600
C331        C  0.49313230  0.41929871  0.37742079    -0.05500
C332        C  0.48798095  0.42904921  0.41120926    -0.32900
C333        C  0.48717856  0.41183602  0.44235828     0.36400
C334        C  0.49142510  0.38353543  0.44070188    -0.05800
C335        C  0.49501080  0.37249331  0.40673743    -0.32800
C336        C  0.49573304  0.38999324  0.37527005     0.36300
H337        H  0.48591335  0.45134943  0.41394681     0.16600
O338        O  0.48305111  0.42384398  0.47429529    -0.60300
H339        H  0.49823843  0.35084627  0.40449152     0.16600
O340        O  0.50128438  0.37966780  0.34299393    -0.60400
H341        H  0.47729035  0.35822692  0.33587562     0.43600
H342        H  0.50763690  0.44459219  0.48099531     0.43600
C343        C  0.50904527  0.42915809  0.12908298    -0.05500
C344        C  0.51755007  0.44570510  0.09517188    -0.32900
C345        C  0.51753626  0.42833271  0.06471519     0.36400
C346        C  0.50838433  0.39304952  0.06707017    -0.05800
C347        C  0.50070766  0.37648441  0.10092483    -0.32800
C348        C  0.50074991  0.39415137  0.13179450     0.36300
H349        H  0.52463642  0.47270763  0.09185818     0.16600
O350        O  0.52675430  0.44651491  0.03267601    -0.60300
H351        H  0.49378080  0.34947444  0.10338006     0.16600
O352        O  0.49259917  0.37687115  0.16423499    -0.60400
H353        H  0.46616076  0.36391442  0.16704818     0.43600
H354        H  0.55297246  0.45812686  0.02979806     0.43600
C355        C  0.81468070  0.53690556  0.49821117    -0.05500
C356        C  0.79482594  0.52865459  0.03459764    -0.32900
C357        C  0.76768459  0.53416775  0.03653512     0.36400
C358        C  0.76029982  0.54886621  0.50251286    -0.05800
C359        C  0.76535029  0.53552817  0.47100270    -0.32800
C360        C  0.79232320  0.52980916  0.46855746     0.36300
H361        H  0.80072987  0.51931138  0.05835096     0.16600
O362        O  0.74945795  0.52715820  0.06827088    -0.60300
H363        H  0.74814342  0.52915979  0.44806413     0.16600
O364        O  0.79566500  0.51614253  0.43738710    -0.60400
H365        H  0.80859434  0.53688380  0.42056910     0.43600
H366        H  0.72870264  0.50145056  0.06700501     0.43600
C367        C  0.25859544  0.54300451  0.50081659    -0.05500
C368        C  0.27475492  0.54556364  0.02966753    -0.32900
C369        C  0.29988425  0.53732831  0.03157277     0.36400
C370        C  0.30682778  0.52246280  0.50394808    -0.05800
C371        C  0.29196023  0.52318898  0.47121330    -0.32800
C372        C  0.26827429  0.53327735  0.46941497     0.36300
H373        H  0.26833897  0.55353603  0.05407858     0.18400
O374        O  0.31500668  0.53970962  0.06409882    -0.60300
H375        H  0.29868292  0.51594751  0.44649885     0.16600
O376        O  0.25507219  0.53367272  0.43659327    -0.60400
H377        H  0.23291039  0.50896078  0.43339650     0.43600
H378        H  0.33690182  0.56484352  0.06539816     0.43600
C379        C  0.89702001  0.51404436  0.06352596    -0.05500
C380        C  0.89388715  0.52750829  0.09610335    -0.32900
C381        C  0.91251382  0.52897109  0.12674076     0.36400
C382        C  0.93474241  0.51680875  0.12520351    -0.05800
C383        C  0.93668586  0.50207191  0.09316600    -0.32800
C384        C  0.91830629  0.50066085  0.06264399     0.36300
H385        H  0.87796194  0.53812900  0.09761252     0.16600
O386        O  0.91065803  0.54453783  0.15721565    -0.60300
H387        H  0.95305849  0.49193707  0.09151005     0.16600
O388        O  0.92133051  0.48585221  0.03217130    -0.60400
H389        H  0.94488759  0.50505530  0.02140590     0.43600
H390        H  0.88996289  0.52449707  0.17099934     0.43600
C391        C  0.93298702  0.51695835  0.37045256    -0.05500
C392        C  0.91463573  0.53321834  0.36871388    -0.32900
C393        C  0.89595552  0.53322525  0.39867230     0.36400
C394        C  0.89548508  0.51671798  0.43089268    -0.05800
C395        C  0.91187255  0.49844757  0.43156926    -0.32800
C396        C  0.93057360  0.49859783  0.40186218     0.36300
H397        H  0.91619694  0.54740956  0.34465772     0.16600
O398        O  0.88055233  0.55156683  0.39684659    -0.60300
H399        H  0.91095045  0.48456085  0.45558645     0.16600
O400        O  0.94601669  0.48024846  0.40359070    -0.60400
H401        H  0.96866005  0.49606445  0.41720500     0.43600
H402        H  0.85683331  0.53467519  0.38534652     0.43600
C403        C  0.96801577  0.37923878  0.06595092    -0.05500
C404        C  0.00066200  0.41392730  0.06497985    -0.32900
C405        C  0.01298514  0.43641024  0.09480669     0.36400
C406        C  0.99297078  0.42445676  0.12697261    -0.05800
C407        C  0.96155981  0.38903241  0.12892766    -0.32800
C408        C  0.94901249  0.36646009  0.09879629     0.36300
H409        H  0.01652649  0.42436649  0.04058475     0.16600
O410        O  0.04496333  0.47002217  0.09229435    -0.60300
H411        H  0.94579295  0.37932371  0.15342091     0.16600
O412        O  0.91719976  0.33283910  0.10141766    -0.60400
H413        H  0.92423391  0.31660953  0.10782710     0.43600
H414        H  0.03917073  0.48504915  0.07930127     0.43600
C415        C  0.98971633  0.42688461  0.37502004    -0.05500
C416        C  0.96201799  0.38996372  0.37211669    -0.32900
C417        C  0.94933869  0.36736292  0.40238426     0.36400
C418        C  0.96407035  0.38165900  0.43655089    -0.05800
C419        C  0.99343202  0.41802218  0.43880252    -0.32800
C420        C  0.00610922  0.44049720  0.40872090     0.36300
H421        H  0.94931481  0.37871656  0.34650805     0.16600
O422        O  0.92175858  0.33169549  0.39819580    -0.60300
H423        H  0.00620279  0.42971458  0.46427745     0.16600
O424        O  0.03493769  0.47579294  0.41263210    -0.60400
H425        H  0.02501202  0.48787226  0.42418417     0.43600
H426        H  0.93370849  0.31944134  0.39434107     0.43600
C427        C  0.14509844  0.56491098  0.12579289    -0.05500
C428        C  0.14488603  0.58308544  0.09557346    -0.32900
C429        C  0.16414065  0.58682387  0.06475423     0.36400
C430        C  0.18282641  0.57075538  0.06297180    -0.05800
C431        C  0.18513669  0.55477277  0.09415660    -0.32800
C432        C  0.16679745  0.55217060  0.12554664     0.36300
H433        H  0.12941974  0.59427404  0.09573178     0.16600
O434        O  0.16400234  0.60589794  0.03643676    -0.60300
H435        H  0.20005914  0.54302589  0.09392807     0.16600
O436        O  0.16921928  0.53593747  0.15524827    -0.60400
H437        H  0.14706907  0.51091138  0.15511705     0.43600
H438        H  0.18624241  0.63064951  0.03914829     0.43600
C439        C  0.14417631  0.56390728  0.37162869    -0.05500
C440        C  0.14538896  0.58320875  0.40139521    -0.32900
C441        C  0.16415620  0.58607707  0.43227409     0.36400
C442        C  0.18219862  0.56928657  0.43399891    -0.05800
C443        C  0.18273707  0.55176611  0.40330119    -0.32800
C444        C  0.16398914  0.54906499  0.37228532     0.36300
H445        H  0.13103875  0.59558332  0.40102033     0.16600
O446        O  0.16460822  0.60541111  0.46058386    -0.60300
H447        H  0.19627152  0.53858809  0.40381160     0.16600
O448        O  0.16286953  0.52942124  0.34391874    -0.60400
H449        H  0.18456925  0.54665622  0.32935825     0.43600
H450        H  0.14034422  0.58975117  0.47172445     0.43600
C451        C  0.07847290  0.64745714  0.12465725    -0.05500
C452        C  0.05753091  0.63457176  0.09354524    -0.32900
C453        C  0.06833766  0.65594597  0.06267251     0.36400
C454        C  0.10076296  0.69109653  0.06250442    -0.05800
C455        C  0.12029943  0.70467632  0.09459997    -0.32800
C456        C  0.10940169  0.68324201  0.12542887     0.36300
H457        H  0.03314534  0.60733665  0.09278362     0.16600
O458        O  0.04719674  0.64180313  0.03277733    -0.60300
H459        H  0.14514159  0.73151603  0.09557305     0.16600
O460        O  0.13090803  0.69660101  0.15516083    -0.60400
H461        H  0.12233746  0.70879585  0.16902935     0.43600
H462        H  0.05209848  0.62493765  0.02269566     0.43600
C463        C  0.08847199  0.65227876  0.36878534    -0.05500
C464        C  0.06322499  0.64464521  0.39537974    -0.32900
C465        C  0.07344865  0.66631351  0.42574032     0.36400
C466        C  0.10970801  0.69592118  0.43009557    -0.05800
C467        C  0.13454552  0.70474983  0.40233056    -0.32800
C468        C  0.12410534  0.68314263  0.37177034     0.36300
H469        H  0.03545170  0.62146535  0.39278505     0.16600
O470        O  0.04770447  0.65889926  0.45061965    -0.60300
H471        H  0.16250420  0.72743526  0.40500536     0.16600
O472        O  0.14923636  0.69145020  0.34582588    -0.60400
H473        H  0.16112708  0.68004542  0.35393816     0.43600
H474        H  0.03759239  0.63427269  0.45965029     0.43600
C475        C  0.80556916  0.19895496  0.49830901    -0.05500
C476        C  0.82440949  0.22139345  0.96432777    -0.32900
C477        C  0.85803728  0.25474481  0.96414876     0.36400
C478        C  0.86869834  0.27047110  0.49937052    -0.05800
C479        C  0.85745100  0.24861939  0.53012041    -0.32800
C480        C  0.82648189  0.21315275  0.52972676     0.36300
H481        H  0.81058404  0.21072181  0.93906362     0.16600
O482        O  0.87212214  0.27178797  0.93188269    -0.60300
H483        H  0.87277608  0.25893321  0.55466908     0.16600
O484        O  0.81683778  0.19287333  0.56040278    -0.60400
H485        H  0.82965517  0.18126726  0.55910001     0.43600
H486        H  0.86004193  0.28364966  0.92640998     0.43600
C487        C  0.53484305  0.25389822  0.49605102    -0.05500
C488        C  0.52893366  0.26363901  0.03070943    -0.32900
C489        C  0.52286405  0.29030052  0.03296551     0.36400
C490        C  0.51595056  0.30323545  0.50161475    -0.05800
C491        C  0.52705301  0.29758175  0.46872084    -0.32800
C492        C  0.53631814  0.27326823  0.46572241     0.36300
H493        H  0.53429301  0.25481903  0.05522498     0.16600
O494        O  0.52386056  0.30386184  0.06601460    -0.60300
H495        H  0.52893280  0.31231827  0.44500404     0.16600
O496        O  0.54769872  0.26954973  0.43312272    -0.60400
H497        H  0.52531389  0.25184454  0.41991852     0.43600
H498        H  0.54952360  0.32397814  0.06975166     0.43600
C499        C  0.65270535  0.08218639  0.12256058    -0.05500
C500        C  0.68844044  0.11269875  0.12493988    -0.32900
C501        C  0.71063304  0.12649802  0.09458774     0.36400
C502        C  0.69713431  0.10958722  0.06111398    -0.05800
C503        C  0.66207963  0.07763120  0.05946113    -0.32800
C504        C  0.63994663  0.06396215  0.08967206     0.36300
H505        H  0.69874188  0.12703690  0.15001448     0.16600
O506        O  0.74460379  0.15767135  0.09774863    -0.60300
H507        H  0.65118407  0.06341046  0.03442996     0.16600
O508        O  0.60591255  0.03262895  0.08676235    -0.60400
H509        H  0.59131542  0.03958932  0.07494493     0.43600
H510        H  0.75942052  0.15011659  0.10768740     0.43600
C511        C  0.69724258  0.10518272  0.43246240    -0.05500
C512        C  0.71261286  0.12482461  0.40037861    -0.32900
C513        C  0.69204631  0.11545956  0.36904749     0.36400
C514        C  0.65543458  0.08605412  0.36940233    -0.05800
C515        C  0.64082388  0.06512118  0.40071523    -0.32800
C516        C  0.66128175  0.07409311  0.43176392     0.36300
H517        H  0.74027809  0.14846111  0.39979505     0.16600
O518        O  0.70762258  0.13613218  0.33880864    -0.60300
H519        H  0.61298788  0.04172922  0.40136977     0.16600
O520        O  0.64518587  0.05271900  0.46150878    -0.60400
H521        H  0.65241835  0.03598818  0.46136141     0.43600
H522        H  0.70493808  0.15610545  0.34127699     0.43600
C523        C  0.55255375  0.13180648  0.12038957    -0.05500
C524        C  0.53686646  0.15065579  0.12262283    -0.32900
C525        C  0.53561889  0.16833706  0.09256666     0.36400
C526        C  0.55076513  0.16777207  0.05975850    -0.05800
C527        C  0.56763265  0.15000554  0.05818435    -0.32800
C528        C  0.56868109  0.13226697  0.08800250     0.36300
H529        H  0.52434506  0.15057922  0.14736381     0.16600
O530        O  0.51872453  0.18516756  0.09546395    -0.60300
H531        H  0.58003042  0.14957613  0.03360795     0.16600
O532        O  0.58540937  0.11524778  0.08505964    -0.60400
H533        H  0.61103172  0.13383522  0.09099929     0.43600
H534        H  0.49308626  0.16640306  0.08974450     0.43600
C535        C  0.56276782  0.17907568  0.42756663    -0.05500
C536        C  0.54644914  0.17991610  0.39596976    -0.32900
C537        C  0.54553172  0.16191269  0.36498736     0.36400
C538        C  0.56069982  0.14236478  0.36548038    -0.05800
C539        C  0.57900992  0.14362194  0.39614880    -0.32800
C540        C  0.58031666  0.16175395  0.42679958     0.36300
H541        H  0.53296837  0.19315363  0.39569583     0.16600
O542        O  0.52750948  0.16144775  0.33540467    -0.60300
H543        H  0.59188562  0.12976307  0.39669624     0.16600
O544        O  0.59902886  0.16239817  0.45587463    -0.60400
H545        H  0.58388965  0.13774203  0.46620207     0.43600
H546        H  0.54600358  0.18244206  0.32076015     0.43600
C547        C  0.20115000  0.80238272  0.49968212    -0.05500
C548        C  0.21634542  0.82197857  0.46775122    -0.32900
C549        C  0.25101561  0.85412412  0.46701098     0.36400
C550        C  0.27146456  0.86765554  0.49872878    -0.05800
C551        C  0.25784380  0.84237443  0.02978597    -0.32800
C552        C  0.22332209  0.80995392  0.03033726     0.36300
H553        H  0.20172367  0.81196596  0.44279392     0.16600
O554        O  0.26449590  0.87202369  0.43500231    -0.60300
H555        H  0.27525573  0.84890370  0.05258369     0.16600
O556        O  0.21334568  0.78744816  0.05931771    -0.60400
H557        H  0.20581089  0.79731337  0.07792651     0.43600
H558        H  0.26962451  0.85717545  0.42071010     0.43600
C559        C  0.42698357  0.98114638  0.12512622    -0.05500
C560        C  0.43796208  0.00285323  0.09436498    -0.32900
C561        C  0.41657473  0.99102002  0.06366193     0.36400
C562        C  0.38316705  0.95668456  0.06314882    -0.05800
C563        C  0.37139291  0.93567117  0.09465449    -0.32800
C564        C  0.39293786  0.94770511  0.12549132     0.36300
H565        H  0.46374011  0.02901542  0.09383987     0.16600
O566        O  0.42871211  0.01345267  0.03437119    -0.60300
H567        H  0.34601415  0.90919856  0.09507252     0.16600
O568        O  0.38164015  0.92544936  0.15484553    -0.60400
H569        H  0.36412077  0.92817745  0.16730601     0.43600
H570        H  0.44696877  0.01121605  0.02286205     0.43600
C571        C  0.38527135  0.95237319  0.43242185    -0.05500
C572        C  0.41802533  0.98682140  0.43254021    -0.32900
C573        C  0.44038248  0.00041702  0.40251476     0.36400
C574        C  0.43044376  0.97952848  0.37130243    -0.05800
C575        C  0.39724756  0.94547060  0.37047862    -0.32800
C576        C  0.37452945  0.93191544  0.40066813     0.36300
H577        H  0.42656848  0.00363073  0.45609890     0.16600
O578        O  0.47141011  0.03479530  0.40357001    -0.60300
H579        H  0.38923526  0.92900966  0.34667613     0.16600
O580        O  0.34265531  0.89829476  0.39911020    -0.60400
H581        H  0.32568824  0.90191204  0.38687795     0.43600
H582        H  0.48904649  0.03284501  0.41682380     0.43600
C583        C  0.55562982  0.76248461  0.50201007    -0.05500
C584        C  0.56052405  0.78080561  0.46974889    -0.32900
C585        C  0.55528978  0.80812058  0.46798145     0.36400
C586        C  0.54503042  0.81789392  0.49895449    -0.05800
C587        C  0.56893397  0.81802166  0.02769437    -0.32800
C588        C  0.57590990  0.79198429  0.02914317     0.36300
H589        H  0.56887891  0.77430420  0.44565560     0.16600
O590        O  0.56034522  0.82492732  0.43573568    -0.60300
H591        H  0.57566779  0.83521763  0.05070867     0.16600
O592        O  0.59231152  0.79013593  0.05894035    -0.60400
H593        H  0.57342130  0.77900003  0.07782344     0.43600
H594        H  0.58652666  0.84442106  0.43444515     0.43600
C595        C  0.52692985  0.89735313  0.06433346    -0.05500
C596        C  0.54122240  0.89475054  0.09656393    -0.32900
C597        C  0.54125808  0.91210183  0.12762763     0.36400
C598        C  0.52675270  0.93226716  0.12663764    -0.05800
C599        C  0.51027617  0.93258482  0.09516627    -0.32800
C600        C  0.50989808  0.91517735  0.06449064     0.36300
H601        H  0.55395920  0.88078274  0.09730366     0.16600
O602        O  0.55705597  0.91059879  0.15811286    -0.60300
H603        H  0.49806708  0.94707171  0.09404303     0.16600
O604        O  0.49352878  0.91674589  0.03450790    -0.60400
H605        H  0.46895686  0.89392535  0.03464890     0.43600
H606        H  0.58260433  0.93174575  0.15659871     0.43600
C607        C  0.52884015  0.93925790  0.37251854    -0.05500
C608        C  0.54103576  0.91726739  0.36991092    -0.32900
C609        C  0.54108883  0.89886064  0.39999028     0.36400
C610        C  0.52856909  0.90217578  0.43330987    -0.05800
C611        C  0.51466544  0.92273801  0.43514344    -0.32800
C612        C  0.51460096  0.94100015  0.40529814     0.36300
H613        H  0.55176186  0.91531956  0.34480978     0.16600
O614        O  0.55421086  0.87853937  0.39652953    -0.60300
H615        H  0.50400921  0.92516087  0.46003182     0.16600
O616        O  0.50083894  0.96080922  0.40868668    -0.60400
H617        H  0.47460054  0.94356709  0.40433594     0.43600
H618        H  0.58056361  0.89555115  0.40034994     0.43600
C619        C  0.54526685  0.84895433  0.99754708     0.80200
N620        N  0.54298615  0.86315102  0.96640464    -0.78100
C621        C  0.53550797  0.88794800  0.96701808     0.82700
N622        N  0.52784755  0.89878984  0.49858214    -0.78000
C623        C  0.53007927  0.88570234  0.53017969     0.82800
N624        N  0.53610802  0.85985165  0.53008509    -0.79700
C625        C  0.30814622  0.89818853  0.99919283     0.80200
N626        N  0.32514238  0.91279779  0.96736782    -0.78100
C627        C  0.36010450  0.94173944  0.96626816     0.82700
N628        N  0.38106012  0.95386813  0.49750620    -0.78000
C629        C  0.36327834  0.94239750  0.52917684     0.82800
N630        N  0.32763993  0.91474249  0.52946076    -0.79700
O631        O  0.43811052  0.98579019  0.80844073    -0.75300
O632        O  0.48427158  0.01289898  0.84852498    -0.54200
C633        C  0.45065143  0.99463355  0.84049017     0.78400
O634        O  0.53161659  0.94882200  0.68909566    -0.59900
O635        O  0.53195448  0.98633460  0.64833133    -0.52900
C636        C  0.53066489  0.95832214  0.65677275     0.70500
O637        O  0.53147353  0.95067272  0.81064910    -0.74400
O638        O  0.53225494  0.98947888  0.84955179    -0.55000
C639        C  0.53091018  0.96117271  0.84247685     0.76500
O640        O  0.43909524  0.98684949  0.68739513    -0.59600
O641        O  0.48540838  0.01143670  0.64715824    -0.52700
C642        C  0.45189010  0.99444897  0.65527716     0.73000
Zr643      Zr  0.46364726  0.99879880  0.74791286     2.54700
O644        O  0.41265148  0.93562875  0.74712546    -0.80200
O645        O  0.42464826  0.01902676  0.74938313    -0.93600
Zr646      Zr  0.53177015  0.97026681  0.74949492     2.64700
O647        O  0.47725353  0.90898560  0.75262441    -0.98500
O648        O  0.57221789  0.95174077  0.75192669    -0.80600
O649        O  0.49688878  0.98413517  0.78298192    -0.83900
O650        O  0.49704689  0.98313387  0.71460236    -2.18700
O651        O  0.55117603  0.12403986  0.68330515    -0.67300
O652        O  0.54861092  0.08399733  0.64484709    -0.51900
C653        C  0.55186725  0.11333456  0.65155021     0.71400
O654        O  0.64003775  0.08811894  0.80775016    -0.60200
O655        O  0.59378860  0.06338216  0.84816822    -0.52200
C656        C  0.62731896  0.08066296  0.83985126     0.73200
O657        O  0.63952725  0.08154517  0.68705454    -0.71600
O658        O  0.59354846  0.05807502  0.64699146    -0.50300
C659        C  0.62673936  0.07338548  0.65506780     0.74600
O660        O  0.55007357  0.12594532  0.80482395    -0.67000
O661        O  0.54845264  0.08806557  0.84617554    -0.54200
C662        C  0.55099876  0.11663879  0.83715857     0.73000
Zr663      Zr  0.54737203  0.10299182  0.74497438     2.77500
O664        O  0.59981332  0.16554488  0.74470336    -0.97700
O665        O  0.50537032  0.11957285  0.74279388    -0.78500
Zr666      Zr  0.61533157  0.07442296  0.74740038     2.70100
O667        O  0.66421093  0.13836105  0.74447904    -0.79800
O668        O  0.65711461  0.05754242  0.74965865    -0.98900
Zr669      Zr  0.53915772  0.03760763  0.81447726     2.21500
Zr670      Zr  0.53958162  0.03555013  0.68090346     2.11100
O671        O  0.58240801  0.08910823  0.71212172    -2.47600
O672        O  0.58159562  0.08980248  0.78050037    -0.79600
O673        O  0.50471704  0.05038197  0.71239242    -0.71800
O674        O  0.57392273  0.02279876  0.78240567    -2.32700
O675        O  0.50498888  0.05186470  0.78046520    -2.28900
O676        O  0.57406283  0.02156986  0.71448620    -0.73500
H677        H  0.48102962  0.96307528  0.69919902     0.78500
H678        H  0.58697826  0.01765044  0.79842749     0.79500
H679        H  0.59866316  0.10848764  0.69590598     0.81800
H680        H  0.49196652  0.05768415  0.79580208     0.79400
H681        H  0.55679495  0.92575081  0.74615512     0.42400
H682        H  0.67976613  0.07906562  0.75910772     0.41400
H683        H  0.65914985  0.14919658  0.76432380     0.41100
H684        H  0.61387726  0.16759217  0.76591096     0.39000
H685        H  0.48506056  0.10056968  0.72815793     0.42100
H686        H  0.40026720  0.99707700  0.74448052     0.36900
H687        H  0.42287376  0.92247408  0.75461441     0.43000
H688        H  0.47252349  0.90026093  0.72763526     0.39400
H689        H  0.61450093  0.16747745  0.72403148     0.44400
H690        H  0.43113906  0.03400416  0.72754894     0.43100
H691        H  0.48470234  0.89502508  0.76486082     0.43200
H692        H  0.64789699  0.03949779  0.76920670     0.43600
C693        C  0.53736521  0.22221521  0.99624827     0.80200
N694        N  0.54300030  0.21174365  0.96442542    -0.78100
C695        C  0.55152872  0.18779066  0.96348392     0.82700
N696        N  0.56165514  0.17996626  0.49323151    -0.78000
C697        C  0.55646248  0.19033111  0.52517942     0.82800
N698        N  0.54806561  0.21439266  0.52551272    -0.79700
C699        C  0.71750886  0.11930779  0.53003177     0.80200
N700        N  0.75208314  0.14887135  0.52956415    -0.78100
C701        C  0.77059424  0.16964812  0.99602595     0.82700
N702        N  0.75273175  0.15609599  0.96446824    -0.78000
C703        C  0.71766653  0.12710609  0.96423715     0.82800
N704        N  0.70051658  0.10468441  0.49846734    -0.79700
O705        O  0.12746010  0.56016454  0.80916477    -0.75300
O706        O  0.08704533  0.55455830  0.84990242    -0.54200
C707        C  0.11715933  0.55983693  0.84136874     0.78400
O708        O  0.07577271  0.63732471  0.68642168    -0.59900
O709        O  0.05633961  0.59147237  0.64702615    -0.52900
C710        C  0.06997562  0.62451440  0.65452118     0.70500
O711        O  0.07811634  0.63955141  0.80758212    -0.74400
O712        O  0.05580219  0.59453981  0.84913956    -0.55000
C713        C  0.07126239  0.62758385  0.84000571     0.76500
O714        O  0.12534874  0.55380293  0.68861958    -0.59600
O715        O  0.08570768  0.54949546  0.64810764    -0.52700
C716        C  0.11515121  0.55350705  0.65644324     0.73000
Zr717      Zr  0.10383414  0.55306935  0.74885383     2.54700
O718        O  0.16494694  0.60762248  0.74387585    -0.80200
O719        O  0.12676728  0.51640639  0.75256887    -0.93600
Zr720      Zr  0.06643112  0.61400128  0.74742769     2.64700
O721        O  0.12707231  0.66962640  0.74745649    -0.98500
O722        O  0.03871541  0.64631129  0.74528081    -0.80600
O723        O  0.08642786  0.58510056  0.78213415    -0.83900
O724        O  0.08623110  0.58405254  0.71422457    -2.18700
O725        O  0.99066568  0.43827639  0.69077278    -0.67300
O726        O  0.01318640  0.48352086  0.64946220    -0.51900
C727        C  0.99760236  0.45035728  0.65833631     0.71400
O728        O  0.94157094  0.51936924  0.80853314    -0.60200
O729        O  0.98313075  0.52743397  0.84893394    -0.52200
C730        C  0.95243172  0.52070261  0.84066332     0.73200
O731        O  0.94533374  0.52460445  0.68742051    -0.71600
O732        O  0.98559470  0.52837243  0.64786735    -0.50300
C733        C  0.95645069  0.52531530  0.65544810     0.74600
O734        O  0.99443059  0.44164035  0.81245511    -0.67000
O735        O  0.01339425  0.48773150  0.85121940    -0.54200
C736        C  0.00018884  0.45475467  0.84429154     0.73000
Zr737      Zr  0.00233435  0.46416038  0.75092003     2.77500
O738        O  0.93985667  0.41164004  0.75426431    -0.97700
O739        O  0.02386370  0.42626951  0.75079422    -0.78500
Zr740      Zr  0.96545388  0.52507184  0.74835611     2.70100
O741        O  0.90510940  0.46921817  0.74581119    -0.79800
O742        O  0.94188787  0.56117705  0.75040848    -0.98900
Zr743      Zr  0.03513963  0.54069809  0.81597675     2.21500
Zr744      Zr  0.03499337  0.53807757  0.68202374     2.11100
O745        O  0.98317985  0.49335183  0.71537227    -2.47600
O746        O  0.98346773  0.49487700  0.78399631    -0.79600
O747        O  0.05339669  0.50723977  0.71573333    -0.71800
O748        O  0.01560217  0.57059112  0.78218025    -2.32700
O749        O  0.05364284  0.50894098  0.78397866    -2.28900
O750        O  0.01593167  0.56931251  0.71369295    -0.73500
H751        H  0.10550322  0.60085485  0.69816866     0.78500
H752        H  0.00828662  0.58229995  0.79752178     0.79500
H753        H  0.96382803  0.47624674  0.69978993     0.81800
H754        H  0.06101648  0.49779906  0.80008855     0.79400
H755        H  0.05077845  0.66471052  0.76428454     0.42400
H756        H  0.95593498  0.58013643  0.73202150     0.41400
H757        H  0.90795138  0.45060743  0.75492296     0.41100
H758        H  0.94140385  0.39088098  0.75525307     0.39000
H759        H  0.04974553  0.44287674  0.74449949     0.42100
H760        H  0.11717058  0.50090919  0.73109373     0.36900
H761        H  0.16207193  0.62601951  0.73414112     0.43000
H762        H  0.13740903  0.67042757  0.72382357     0.39400
H763        H  0.93149235  0.41253574  0.77846966     0.44400
H764        H  0.11348001  0.49965585  0.77283197     0.43100
H765        H  0.12338702  0.68896800  0.74627986     0.43200
H766        H  0.91732547  0.54542644  0.74031506     0.43600
C767        C  0.23272306  0.55425900  0.99645157     0.80200
N768        N  0.22040898  0.55865783  0.96507869    -0.78100
C769        C  0.19705325  0.56815819  0.96523903     0.82700
N770        N  0.18578816  0.57268137  0.99705847    -0.78000
C771        C  0.19602690  0.56554208  0.53151593     0.82800
N772        N  0.21994609  0.55688334  0.53151015    -0.79700
C773        C  0.94560742  0.35924946  0.53367964     0.80200
N774        N  0.96838374  0.37716961  0.00054114    -0.78100
C775        C  0.95475601  0.36152140  0.96837892     0.82700
N776        N  0.92559610  0.32675473  0.96745279    -0.78000
C777        C  0.91024107  0.30765674  0.99818911     0.82800
N778        N  0.91547479  0.32481310  0.53262763    -0.79700
C779        C  0.84110423  0.52661340  0.00092043     0.80200
N780        N  0.85718829  0.52827414  0.52842458    -0.78100
C781        C  0.88295449  0.52209995  0.52804129     0.82700
N782        N  0.89106593  0.51240742  0.99798622    -0.78000
C783        C  0.87759419  0.51564163  0.96712972     0.82800
N784        N  0.85264534  0.52282080  0.96878483    -0.79700
C785        C  0.16454127  0.76447034  0.99920310     0.80200
N786        N  0.14953247  0.74891962  0.96713688    -0.78100
C787        C  0.11798318  0.71548738  0.96569465     0.82700
N788        N  0.10186569  0.69750805  0.99668945    -0.78000
C789        C  0.11877935  0.71349311  0.52772612     0.82800
N790        N  0.14918699  0.74768775  0.52883856    -0.79700
O791        O  0.62703320  0.55555268  0.69608893    -0.75300
O792        O  0.58711407  0.54901774  0.65435528    -0.54200
C793        C  0.61719109  0.55489646  0.66368712     0.78400
O794        O  0.50172729  0.43339932  0.81351595    -0.59900
O795        O  0.51170892  0.47557396  0.85400860    -0.52900
C796        C  0.50366398  0.44436924  0.84569983     0.70500
O797        O  0.50610353  0.43579982  0.69328679    -0.74400
O798        O  0.51681577  0.47835094  0.65247418    -0.55000
C799        C  0.50898092  0.44724519  0.66111234     0.76500
O800        O  0.62507500  0.55668741  0.81772126    -0.59600
O801        O  0.58014316  0.54353257  0.85616641    -0.52700
C802        C  0.61172881  0.55173504  0.84951898     0.73000
Zr803      Zr  0.60468760  0.55393787  0.75599767     2.54700
O804        O  0.63993173  0.52946311  0.76020078    -0.80200
O805        O  0.66114678  0.61394230  0.75388686    -0.93600
Zr806      Zr  0.50959010  0.45799316  0.75336967     2.64700
O807        O  0.54430363  0.43278804  0.75370052    -0.98500
O808        O  0.45250785  0.39863098  0.75173451    -0.80600
O809        O  0.55840319  0.50628766  0.72022518    -0.83900
O810        O  0.55634386  0.50483839  0.78864399    -2.18700
O811        O  0.56514078  0.62692090  0.81448433    -0.67300
O812        O  0.54764515  0.58156742  0.85434354    -0.51900
C813        C  0.56035374  0.61435632  0.84656737     0.71400
O814        O  0.43892364  0.50639249  0.69144154    -0.60200
O815        O  0.48148795  0.51553395  0.65151754    -0.52200
C816        C  0.45078220  0.50919135  0.65935864     0.73200
O817        O  0.43425416  0.50102292  0.81210968    -0.71600
O818        O  0.47666413  0.51249727  0.85308966    -0.50300
C819        C  0.44542029  0.50408977  0.84446013     0.74600
O820        O  0.56215170  0.62693190  0.69332698    -0.67000
O821        O  0.55002078  0.58374590  0.65317136    -0.54200
C822        C  0.55949079  0.61548595  0.66116796     0.73000
Zr823      Zr  0.55430374  0.60247749  0.75382968     2.77500
O824        O  0.51725506  0.62504125  0.75586428    -0.97700
O825        O  0.60973692  0.66311762  0.75043795    -0.78500
Zr826      Zr  0.45890198  0.50636099  0.75219216     2.70100
O827        O  0.42533800  0.53269241  0.75330226    -0.79800
O828        O  0.40354301  0.44561269  0.74972467    -0.98900
Zr829      Zr  0.53316143  0.53083862  0.68655775     2.21500
Zr830      Zr  0.52977596  0.52894084  0.82044675     2.11100
O831        O  0.50543393  0.55439318  0.78709388    -2.47600
O832        O  0.50713999  0.55520045  0.71878124    -0.79600
O833        O  0.57953021  0.57875859  0.78910493    -0.71800
O834        O  0.48392799  0.48153323  0.71870213    -2.32700
O835        O  0.58101905  0.57918925  0.72074620    -2.28900
O836        O  0.48217527  0.48046442  0.78688961    -0.73500
H837        H  0.56532413  0.49500066  0.80454299     0.78500
H838        H  0.46603941  0.46339798  0.70252797     0.79500
H839        H  0.49580360  0.56377036  0.80265738     0.81800
H840        H  0.59968547  0.59775074  0.70522542     0.79400
H841        H  0.43792194  0.40091166  0.73387378     0.42400
H842        H  0.40153469  0.43828355  0.72441419     0.41400
H843        H  0.44391072  0.55869598  0.75724678     0.41100
H844        H  0.51169955  0.62487956  0.78154114     0.39000
H845        H  0.62458698  0.66445108  0.77053098     0.42100
H846        H  0.65857781  0.62755469  0.77270307     0.36900
H847        H  0.63055819  0.51125184  0.74099182     0.43000
H848        H  0.52751083  0.40795692  0.74460678     0.39400
H849        H  0.53402174  0.65088426  0.74955864     0.44400
H850        H  0.66041961  0.62461036  0.73107820     0.43100
H851        H  0.56235467  0.44576636  0.73429388     0.43200
H852        H  0.40916163  0.43059732  0.76291430     0.43600
C853        C  0.50948827  0.33117520  0.00258686     0.80200
N854        N  0.50310859  0.34212233  0.97141347    -0.78100
C855        C  0.49735682  0.36811967  0.97141722     0.82700
N856        N  0.49877536  0.38356454  0.00273657    -0.78000
C857        C  0.49565688  0.36613064  0.53724246     0.82800
N858        N  0.50391332  0.34191506  0.53578083    -0.79700
C859        C  0.33644524  0.51856782  0.00110644     0.80200
N860        N  0.34740639  0.51049871  0.53509590    -0.78100
C861        C  0.37151585  0.50192979  0.53438213     0.82700
N862        N  0.38627183  0.50404350  0.00082165    -0.78000
C863        C  0.37238496  0.50545823  0.96938368     0.82800
N864        N  0.34749124  0.51275354  0.96971848    -0.79700
C865        C  0.73051410  0.55230191  0.00684078     0.80200
N866        N  0.71467295  0.55204905  0.97576654    -0.78100
C867        C  0.68830483  0.55739055  0.97637280     0.82700
N868        N  0.67844700  0.56347905  0.00807168    -0.78000
C869        C  0.69374045  0.56358332  0.53838888     0.82800
N870        N  0.72000239  0.55827084  0.53655812    -0.79700
C871        C  0.57198838  0.73947865  0.00141999     0.80200
N872        N  0.57374655  0.72474274  0.97062415    -0.78100
C873        C  0.57695828  0.69700509  0.97151948     0.82700
N874        N  0.57807955  0.68392068  0.00378769    -0.78000
C875        C  0.57263974  0.69667165  0.53581302     0.82800
N876        N  0.56612282  0.72216731  0.53492902    -0.79700
C877        C  0.38597681  0.50059711  0.93544062    -0.05500
C878        C  0.40478137  0.48484738  0.93696121    -0.32900
C879        C  0.42281135  0.48442488  0.90704656     0.36400
C880        C  0.42159796  0.49899549  0.87431918    -0.05800
C881        C  0.40062911  0.51236361  0.87181098    -0.32800
C882        C  0.38315458  0.51360195  0.90216737     0.36300
H883        H  0.40666921  0.47377859  0.96182183     0.16600
O884        O  0.44182271  0.46983146  0.91014202    -0.60300
H885        H  0.39954188  0.52384868  0.84684219     0.16600
O886        O  0.36485384  0.52898757  0.89922624    -0.60400
H887        H  0.38331355  0.55516515  0.90260988     0.43600
H888        H  0.46398571  0.48789988  0.92346425     0.43600
C889        C  0.38913624  0.50105662  0.56761761    -0.05500
C890        C  0.38887644  0.51782570  0.59908088    -0.32900
C891        C  0.40777884  0.51963588  0.62965538     0.36400
C892        C  0.42778251  0.50496928  0.62902631    -0.05800
C893        C  0.42719569  0.48732825  0.59813348    -0.32800
C894        C  0.40808532  0.48507913  0.56779502     0.36300
H895        H  0.37481647  0.53046698  0.59976150     0.16600
O896        O  0.40833616  0.53774763  0.65918653    -0.60300
H897        H  0.44182380  0.47525156  0.59739755     0.16600
O898        O  0.40766333  0.46652064  0.53871246    -0.60400
H899        H  0.43179726  0.48256880  0.52740393     0.43600
H900        H  0.38674084  0.51957950  0.67337872     0.43600
C901        C  0.57709704  0.67946527  0.93800782    -0.05500
C902        C  0.58260460  0.65222767  0.94035556    -0.32900
C903        C  0.57901821  0.63219794  0.91042378     0.36400
C904        C  0.56941003  0.63881119  0.87707815    -0.05800
C905        C  0.56623195  0.66752227  0.87394548    -0.32800
C906        C  0.57007397  0.68785277  0.90398392     0.36300
H907        H  0.58896804  0.64567095  0.96574287     0.16600
O908        O  0.58415340  0.60555318  0.91437882    -0.60300
H909        H  0.55921847  0.67328887  0.84847270     0.16600
O910        O  0.56505585  0.71453503  0.89989337    -0.60400
H911        H  0.58916160  0.73643576  0.89352995     0.43600
H912        H  0.60956060  0.61678304  0.90718959     0.43600
C913        C  0.56748547  0.64009491  0.63082847    -0.05500
C914        C  0.56065069  0.66635246  0.63354676    -0.32900
C915        C  0.56379185  0.68656160  0.60343110     0.36400
C916        C  0.57421150  0.68077883  0.56997604    -0.05800
C917        C  0.58379715  0.65657689  0.56835466    -0.32800
C918        C  0.57999559  0.63604226  0.59798896     0.36300
H919        H  0.55121171  0.67006049  0.65862334     0.16600
O920        O  0.55466231  0.71024218  0.60674336    -0.60300
H921        H  0.59303882  0.65223931  0.54350925     0.16600
O922        O  0.58862525  0.61195745  0.59444334    -0.60400
H923        H  0.56836355  0.59135483  0.58100466     0.43600
H924        H  0.57674992  0.73287072  0.61555046     0.43600
C925        C  0.63285231  0.55413881  0.88118489    -0.05500
C926        C  0.61660179  0.54668724  0.91521081    -0.32900
C927        C  0.63396068  0.54679428  0.94580476     0.36400
C928        C  0.66904611  0.55532416  0.94346396    -0.05800
C929        C  0.68543150  0.56239479  0.90958014    -0.32800
C930        C  0.66759921  0.56171851  0.87856130     0.36300
H931        H  0.58975598  0.54009768  0.91845312     0.16600
O932        O  0.61585949  0.53798455  0.97787447    -0.60300
H933        H  0.71228899  0.56885835  0.90711703     0.16600
O934        O  0.68463201  0.56893258  0.84606827    -0.60400
H935        H  0.67999565  0.54579576  0.83839186     0.43600
H936        H  0.60408208  0.51178393  0.98100239     0.43600
C937        C  0.64195139  0.56120164  0.63466971    -0.05500
C938        C  0.64799171  0.58480439  0.60691937    -0.32900
C939        C  0.66686559  0.58747172  0.57620235     0.36400
C940        C  0.68004256  0.56628222  0.57301522    -0.05800
C941        C  0.67620006  0.54451593  0.60191503    -0.32800
C942        C  0.65724552  0.54191207  0.63273671     0.36300
H943        H  0.63728404  0.60060552  0.60873105     0.16600
O944        O  0.67242302  0.61091468  0.54943630    -0.60300
H945        H  0.68602601  0.52792101  0.59978622     0.16600
O946        O  0.65116969  0.51819122  0.65936364    -0.60400
H947        H  0.67224558  0.53205288  0.67545650     0.43600
H948        H  0.64853237  0.60002440  0.53819006     0.43600
C949        C  0.49691833  0.41998855  0.87568638    -0.05500
C950        C  0.48273505  0.42288342  0.90765514    -0.32900
C951        C  0.48033288  0.40413982  0.93831888     0.36400
C952        C  0.49306379  0.38237033  0.93768853    -0.05800
C953        C  0.50500987  0.37744157  0.90499657    -0.32800
C954        C  0.50671224  0.39584190  0.87402566     0.36300
H955        H  0.47415950  0.44046819  0.90918133     0.16600
O956        O  0.46530869  0.40720950  0.96872687    -0.60300
H957        H  0.51466917  0.36066389  0.90371896     0.16600
O958        O  0.52057702  0.39212578  0.84313945    -0.60400
H959        H  0.49983466  0.37050028  0.83129628     0.43600
H960        H  0.48250031  0.43240695  0.97685304     0.43600
C961        C  0.50270597  0.42287113  0.63181462    -0.05500
C962        C  0.47848801  0.41636409  0.60477089    -0.32900
C963        C  0.47412679  0.39575775  0.57493139     0.36400
C964        C  0.49479892  0.38188042  0.57152660    -0.05800
C965        C  0.51761708  0.38680683  0.59970592    -0.32800
C966        C  0.52142620  0.40695447  0.62988353     0.36300
H967        H  0.46309360  0.42757665  0.60664131     0.16600
O968        O  0.44908052  0.38866820  0.54952421    -0.60300
H969        H  0.53378953  0.37649092  0.59763446     0.16600
O970        O  0.54545302  0.41316703  0.65605590    -0.60400
H971        H  0.53206338  0.39172475  0.67196306     0.43600
H972        H  0.45682498  0.41243801  0.53984109     0.43600
C973        C  0.81340638  0.53407230  0.00238379    -0.05500
C974        C  0.80983865  0.55058190  0.52959005    -0.32900
C975        C  0.78323498  0.55675975  0.53188186     0.36400
C976        C  0.75898052  0.54600576  0.00602412    -0.05800
C977        C  0.77771516  0.55168646  0.97394680    -0.32800
C978        C  0.80462142  0.54594674  0.97191278     0.36300
H979        H  0.82704022  0.55699279  0.55254737     0.16600
O980        O  0.78095191  0.57182508  0.56255982    -0.60300
H981        H  0.77173746  0.56093968  0.95016569     0.16600
O982        O  0.82198194  0.55205010  0.93981098    -0.60400
H983        H  0.84215406  0.57802559  0.93981028     0.43600
H984        H  0.76696906  0.55153058  0.57973711     0.43600
C985        C  0.25864588  0.54429812  0.99703494    -0.05500
C986        C  0.27327570  0.54211831  0.53360669    -0.32900
C987        C  0.29715026  0.53217331  0.53537106     0.36400
C988        C  0.30934610  0.52700002  0.00049441    -0.05800
C989        C  0.29288042  0.52525228  0.96790140    -0.32800
C990        C  0.26783881  0.53366220  0.96597707     0.36300
H991        H  0.26646013  0.54939324  0.55824215     0.18400
O992        O  0.31054594  0.53191073  0.56810819    -0.60300
H993        H  0.29936235  0.51731998  0.94350331     0.16600
O994        O  0.25283644  0.53153558  0.93344702    -0.60400
H995        H  0.23052097  0.50665561  0.93229459     0.43600
H996        H  0.33251985  0.55674337  0.57130870     0.43600
C997        C  0.89931707  0.52058615  0.56168613    -0.05500
C998        C  0.89698752  0.53579319  0.59338254    -0.32900
C999        C  0.91448250  0.53669394  0.62469812     0.36400
C1000       C  0.93465095  0.52222617  0.62457899    -0.05800
C1001       C  0.93604687  0.50617983  0.59328810    -0.32800
C1002       C  0.91883410  0.50532225  0.56216364     0.36300
H1003       H  0.88250829  0.54801004  0.59366743     0.16600
O1004       O  0.91361695  0.55379437  0.65440202    -0.60300
H1005       H  0.95098629  0.49442914  0.59273771     0.16600
O1006       O  0.92093292  0.48889468  0.53253722    -0.60400
H1007       H  0.94472125  0.50708535  0.52149084     0.43600
H1008       H  0.89074356  0.53554440  0.66686236     0.43600
C1009       C  0.92844062  0.51464918  0.87068017    -0.05500
C1010       C  0.90902918  0.52977445  0.86999854    -0.32900
C1011       C  0.89060290  0.52886851  0.90060392     0.36400
C1012       C  0.89155838  0.51264912  0.93246135    -0.05800
C1013       C  0.90871312  0.49516750  0.93193042    -0.32800
C1014       C  0.92710940  0.49619063  0.90154894     0.36300
H1015       H  0.90965838  0.54392347  0.84632281     0.16600
O1016       O  0.87396602  0.54601806  0.89963972    -0.60300
H1017       H  0.90881772  0.48139520  0.95554887     0.16600
O1018       O  0.94374984  0.47899547  0.90225664    -0.60400
H1019       H  0.96630923  0.49520985  0.91583765     0.43600
H1020       H  0.85000941  0.52836383  0.88891173     0.43600
C1021       C  0.96018295  0.37921766  0.56797185    -0.05500
C1022       C  0.99466891  0.41206018  0.56776831    -0.32900
C1023       C  0.00769463  0.43458598  0.59758085     0.36400
C1024       C  0.98635704  0.42452156  0.62870379    -0.05800
C1025       C  0.95298143  0.39064923  0.63009507    -0.32800
C1026       C  0.93987678  0.36792165  0.60013697     0.36300
H1027       H  0.01150656  0.42097529  0.54400696     0.16600
O1028       O  0.04162125  0.46627944  0.59621198    -0.60300
H1029       H  0.93630919  0.38240392  0.65393975     0.16600
O1030       O  0.90646002  0.33576864  0.60216122    -0.60400
H1031       H  0.91072751  0.31846645  0.61238648     0.43600
H1032       H  0.03929558  0.48288509  0.58136469     0.43600
C1033       C  0.99097955  0.43050314  0.87539754    -0.05500
C1034       C  0.96842871  0.39290553  0.87111040    -0.32900
C1035       C  0.95750055  0.36974405  0.90071120     0.36400
C1036       C  0.96890004  0.38408627  0.93547244    -0.05800
C1037       C  0.99295874  0.42157442  0.93929377    -0.32800
C1038       C  0.00390250  0.44462931  0.90995595     0.36300
H1039       H  0.95854356  0.38132589  0.84483487     0.16600
O1040       O  0.93516266  0.33330558  0.89522037    -0.60300
H1041       H  0.00287981  0.43358424  0.96540750     0.16600
O1042       O  0.02793723  0.48099105  0.91546965    -0.60400
H1043       H  0.01404893  0.48852415  0.92780780     0.43600
H1044       H  0.95132259  0.32538483  0.89421706     0.43600
C1045       C  0.13904044  0.55900488  0.62654308    -0.05500
C1046       C  0.14272471  0.58051823  0.59759358    -0.32900
C1047       C  0.16285013  0.58451005  0.56743046     0.36400
C1048       C  0.17934596  0.56623522  0.56537278    -0.05800
C1049       C  0.17710510  0.54605003  0.59517819    -0.32800
C1050       C  0.15696772  0.54221296  0.62555965     0.36300
H1051       H  0.12962947  0.59415960  0.59823982     0.16600
O1052       O  0.16554596  0.60589127  0.53989389    -0.60300
H1053       H  0.18952963  0.53178279  0.59433131     0.16600
O1054       O  0.15355141  0.52060690  0.65326736    -0.60400
H1055       H  0.13088972  0.49664201  0.64846975     0.43600
H1056       H  0.18972329  0.62893553  0.54242995     0.43600
C1057       C  0.14135301  0.56530937  0.87086726    -0.05500
C1058       C  0.14635749  0.58734802  0.89965372    -0.32900
C1059       C  0.16609145  0.59008979  0.92972269     0.36400
C1060       C  0.18115674  0.57038193  0.93148668    -0.05800
C1061       C  0.17775434  0.54988095  0.90167639    -0.32800
C1062       C  0.15801918  0.54723636  0.87157699     0.36300
H1063       H  0.13438353  0.60207447  0.89911516     0.16600
O1064       O  0.17064316  0.61230124  0.95714885    -0.60300
H1065       H  0.18882068  0.53433578  0.90236480     0.16600
O1066       O  0.15268240  0.52454882  0.84432631    -0.60400
H1067       H  0.17343167  0.53943301  0.82783600     0.43600
H1068       H  0.14638590  0.60065619  0.96805071     0.43600
C1069       C  0.07974314  0.64919587  0.62388787    -0.05500
C1070       C  0.06061322  0.63520380  0.59181352    -0.32900
C1071       C  0.07152360  0.65635059  0.56086183     0.36400
C1072       C  0.10263661  0.69229109  0.56131032    -0.05800
C1073       C  0.12021895  0.70699648  0.59416378    -0.32800
C1074       C  0.10881360  0.68589376  0.62532296     0.36300
H1075       H  0.03731101  0.60738794  0.59047363     0.16600
O1076       O  0.05151143  0.64135692  0.53039275    -0.60300
H1077       H  0.14378000  0.73461917  0.59563241     0.16600
O1078       O  0.12783864  0.70083850  0.65633339    -0.60400
H1079       H  0.11750016  0.71272333  0.66739989     0.43600
H1080       H  0.05839706  0.62589199  0.52074194     0.43600
C1081       C  0.08189531  0.65336182  0.86925134    -0.05500
C1082       C  0.05733218  0.64463710  0.89701217    -0.32900
C1083       C  0.06798736  0.66605822  0.92765301     0.36400
C1084       C  0.10401239  0.69653798  0.93103402    -0.05800
C1085       C  0.12788027  0.70650190  0.90201766    -0.32800
C1086       C  0.11704590  0.68510063  0.87131920     0.36300
H1087       H  0.02989345  0.62067358  0.89523256     0.16600
O1088       O  0.04294861  0.65732285  0.95390933    -0.60300
H1089       H  0.15562537  0.72982910  0.90382982     0.16600
O1090       O  0.14159886  0.69430390  0.84444289    -0.60400
H1091       H  0.15353780  0.68251726  0.85093613     0.43600
H1092       H  0.03380969  0.63266393  0.96202492     0.43600
C1093       C  0.80820434  0.20275004  0.99646292    -0.05500
C1094       C  0.81739612  0.22045637  0.46733467    -0.32900
C1095       C  0.84821431  0.25588189  0.46773430     0.36400
C1096       C  0.87648212  0.27043437  0.99667790    -0.05800
C1097       C  0.86118884  0.25076817  0.02855427    -0.32800
C1098       C  0.82771841  0.21726427  0.02865476     0.36300
H1099       H  0.80187229  0.21044225  0.44287892     0.16600
O1100       O  0.85723871  0.27618280  0.43716769    -0.60300
H1101       H  0.87487538  0.26159181  0.05385007     0.16600
O1102       O  0.81418277  0.19957273  0.06070978    -0.60400
H1103       H  0.82178176  0.18318277  0.06234545     0.43600
H1104       H  0.84312998  0.28644205  0.43824520     0.43600
C1105       C  0.52900055  0.24917011  0.99753507    -0.05500
C1106       C  0.52340352  0.25932911  0.52887138    -0.32900
C1107       C  0.51409862  0.28359343  0.53187831     0.36400
C1108       C  0.51591203  0.30272560  0.00168398    -0.05800
C1109       C  0.51539367  0.28778063  0.96856390    -0.32800
C1110       C  0.52174442  0.26134867  0.96627664     0.36300
H1111       H  0.52136090  0.24453848  0.55260137     0.16600
O1112       O  0.50197879  0.28678087  0.56430718    -0.60300
H1113       H  0.51017023  0.29662591  0.94398144     0.16600
O1114       O  0.52109585  0.24803638  0.93316954    -0.60400
H1115       H  0.49562532  0.22744128  0.92946902     0.43600
H1116       H  0.52361139  0.30031636  0.57975904     0.43600
C1117       C  0.65177096  0.08268539  0.62504645    -0.05500
C1118       C  0.68664141  0.11465681  0.62598848    -0.32900
C1119       C  0.70917225  0.12635615  0.59588048     0.36400
C1120       C  0.69691865  0.10567891  0.56413655    -0.05800
C1121       C  0.66281353  0.07250601  0.56424302    -0.32800
C1122       C  0.64022464  0.06111577  0.59415002     0.36300
H1123       H  0.69586398  0.13158454  0.64953132     0.16600
O1124       O  0.74200640  0.15916506  0.59719970    -0.60300
H1125       H  0.65299049  0.05566358  0.54065020     0.16600
O1126       O  0.60693383  0.02869008  0.59298767    -0.60400
H1127       H  0.59151455  0.03336796  0.57909302     0.43600
H1128       H  0.75806607  0.15463661  0.60998660     0.43600
C1129       C  0.69688107  0.11339522  0.93057150    -0.05500
C1130       C  0.70887115  0.13546038  0.89986404    -0.32900
C1131       C  0.68693664  0.12488038  0.86954524     0.36400
C1132       C  0.65262248  0.09176850  0.86968201    -0.05800
C1133       C  0.64149221  0.06897845  0.89953297    -0.32800
C1134       C  0.66326972  0.07928750  0.92960716     0.36300
H1135       H  0.73455700  0.16166399  0.89985121     0.16600
O1136       O  0.69860437  0.14775933  0.84066164    -0.60300
H1137       H  0.61548539  0.04302503  0.89971463     0.16600
O1138       O  0.65079158  0.05600444  0.95821728    -0.60400
H1139       H  0.66169414  0.04262513  0.95537045     0.43600
H1140       H  0.69013988  0.16311751  0.84528447     0.43600
C1141       C  0.55637338  0.13585051  0.62024956    -0.05500
C1142       C  0.54681391  0.16003497  0.62278101    -0.32900
C1143       C  0.54761505  0.17885078  0.59252853     0.36400
C1144       C  0.55821990  0.17374215  0.55883195    -0.05800
C1145       C  0.56951567  0.15091752  0.55692170    -0.32800
C1146       C  0.56898039  0.13242307  0.58703117     0.36300
H1147       H  0.53758336  0.16359753  0.64806899     0.16600
O1148       O  0.53756349  0.20176542  0.59634027    -0.60300
H1149       H  0.57862330  0.14693532  0.53181184     0.16600
O1150       O  0.58063038  0.11078507  0.58341006    -0.60400
H1151       H  0.60664742  0.12636165  0.58938759     0.43600
H1152       H  0.51095568  0.18637991  0.59387877     0.43600
C1153       C  0.55600561  0.17479762  0.92916136    -0.05500
C1154       C  0.53729263  0.17354198  0.89866105    -0.32900
C1155       C  0.53679217  0.15621471  0.86751886     0.36400
C1156       C  0.55527529  0.14000886  0.86671149    -0.05800
C1157       C  0.57590797  0.14343614  0.89626176    -0.32800
C1158       C  0.57634268  0.16051457  0.92731877     0.36300
H1159       H  0.52141065  0.18424102  0.89955740     0.16600
O1160       O  0.51571782  0.15259670  0.83932649    -0.60300
H1161       H  0.59097337  0.13181480  0.89569245     0.16600
O1162       O  0.59673704  0.16304706  0.95573109    -0.60400
H1163       H  0.58345279  0.13843298  0.96612720     0.43600
H1164       H  0.53162531  0.17417630  0.82410938     0.43600
C1165       C  0.20031285  0.79983519  0.00055282    -0.05500
C1166       C  0.21247742  0.82330017  0.97099888    -0.32900
C1167       C  0.24709795  0.85568452  0.97039148     0.36400
C1168       C  0.27039522  0.86537521  0.99985290    -0.05800
C1169       C  0.25533184  0.84936923  0.53112352    -0.32800
C1170       C  0.22062052  0.81715996  0.53185379     0.36300
H1171       H  0.19519805  0.81644068  0.94800851     0.16600
O1172       O  0.25752654  0.87795197  0.94112327    -0.60300
H1173       H  0.27011337  0.85924821  0.55600777     0.16600
O1174       O  0.20704521  0.79957662  0.56398799    -0.60400
H1175       H  0.19439127  0.80937532  0.57442167     0.43600
H1176       H  0.26237043  0.86625518  0.92196552     0.43600
C1177       C  0.42674954  0.98291681  0.62502811    -0.05500
C1178       C  0.43907989  0.00357345  0.59350711    -0.32900
C1179       C  0.41806860  0.99156918  0.56266086     0.36400
C1180       C  0.38372527  0.95818273  0.56285906    -0.05800
C1181       C  0.37051425  0.93852805  0.59508229    -0.32800
C1182       C  0.39172900  0.95067051  0.62602873     0.36300
H1183       H  0.46560891  0.02892905  0.59245805     0.16600
O1184       O  0.43147541  0.01284116  0.53251114    -0.60300
H1185       H  0.34434241  0.91282431  0.59595369     0.16600
O1186       O  0.37900334  0.92945956  0.65619403    -0.60400
H1187       H  0.36580607  0.93714308  0.66969892     0.43600
H1188       H  0.45006328  0.01008007  0.52290879     0.43600
C1189       C  0.37974075  0.95637721  0.93178162    -0.05500
C1190       C  0.41113315  0.99179392  0.93073624    -0.32900
C1191       C  0.43365203  0.00495702  0.90063375     0.36400
C1192       C  0.42483222  0.98280216  0.87053238    -0.05800
C1193       C  0.39217658  0.94829437  0.87042738    -0.32800
C1194       C  0.36968356  0.93493900  0.90076202     0.36300
H1195       H  0.41892384  0.00916323  0.95379305     0.16600
O1196       O  0.46414570  0.03969793  0.90075849    -0.60300
H1197       H  0.38493964  0.93091996  0.84746084     0.16600
O1198       O  0.33953540  0.90003523  0.90065892    -0.60400
H1199       H  0.32144954  0.90056347  0.88654261     0.43600
H1200       H  0.48168911  0.03912441  0.91584437     0.43600
C1201       C  0.56729763  0.76899223  0.99980280    -0.05500
C1202       C  0.55320068  0.77385400  0.96870985    -0.32900
C1203       C  0.54662956  0.80023558  0.96709986     0.36400
C1204       C  0.55374046  0.82212652  0.99712977    -0.05800
C1205       C  0.53962359  0.79916589  0.53104511    -0.32800
C1206       C  0.54427682  0.77149821  0.53265427     0.36300
H1207       H  0.54645212  0.75664604  0.94570149     0.16600
O1208       O  0.53169668  0.80312817  0.93664699    -0.60300
H1209       H  0.53110901  0.80549294  0.55513844     0.16600
O1210       O  0.53707642  0.75323054  0.56435586    -0.60400
H1211       H  0.51155256  0.73210709  0.56264115     0.43600
H1212       H  0.55216570  0.81764319  0.91974915     0.43600
C1213       C  0.52685235  0.90055402  0.56403889    -0.05500
C1214       C  0.54340504  0.89993135  0.59548906    -0.32900
C1215       C  0.54392195  0.91752162  0.62654863     0.36400
C1216       C  0.52753465  0.93588001  0.62646270    -0.05800
C1217       C  0.50958552  0.93497120  0.59555267    -0.32800
C1218       C  0.50887119  0.91740229  0.56477840     0.36300
H1219       H  0.55724973  0.88706112  0.59561906     0.16600
O1220       O  0.56180690  0.91787859  0.65619389    -0.60300
H1221       H  0.49623642  0.94836258  0.59504972     0.16600
O1222       O  0.49082160  0.91739654  0.53542822    -0.60400
H1223       H  0.46673174  0.89401608  0.53646652     0.43600
H1224       H  0.58695726  0.93949490  0.65323957     0.43600
C1225       C  0.52938330  0.93983107  0.87337261    -0.05500
C1226       C  0.54184823  0.91806312  0.86995164    -0.32900
C1227       C  0.54373866  0.90047726  0.89984953     0.36400
C1228       C  0.53264574  0.90419246  0.93384255    -0.05800
C1229       C  0.51892195  0.92487504  0.93668709    -0.32800
C1230       C  0.51701983  0.94228610  0.90709630     0.36300
H1231       H  0.55127101  0.91555174  0.84426204     0.16600
O1232       O  0.55692310  0.88028016  0.89548346    -0.60300
H1233       H  0.50953333  0.92787001  0.96213633     0.16600
O1234       O  0.50314499  0.96186170  0.91171874    -0.60400
H1235       H  0.47723904  0.94515143  0.90559976     0.43600
H1236       H  0.58353192  0.89782038  0.89580362     0.43600
loop_ 
_geom_bond_atom_site_label_1 
_geom_bond_atom_site_label_2 
_geom_bond_distance 
_geom_bond_site_symmetry_2 
_ccdc_geom_bond_type 
C1            N2   1.362       .  A
C1          N624   1.364       .  A
C1          C586   1.488       .  S
N2            C3   1.358       .  A
C3          N622   1.354       .  A
C3          C610   1.483       .  S
N4            C5   1.351   1_556  A
N4          C621   1.352       .  A
C5            N6   1.357       .  A
C5          C595   1.484       .  S
N6          C619   1.364   1_554  A
C7            N8   1.362       .  A
C7          N630   1.364       .  A
C7          C550   1.488       .  S
N8            C9   1.356       .  A
C9          N628   1.353       .  A
C9          C571   1.483       .  S
N10          C11   1.357   1_556  A
N10         C627   1.356       .  A
C11          N12   1.361       .  A
C11         C562   1.491       .  S
N12         C625   1.364   1_554  A
O13         Zr25   2.446       .  S
O13          C15   1.288       .  A
O14         Zr51   2.401       .  S
O14          C15   1.283   1_545  A
C15         C574   1.475       .  S
O16         Zr28   2.450       .  S
O16          C18   1.288       .  A
O17         Zr52   2.406   1_565  S
O17          C18   1.285       .  A
C18         C598   1.479       .  S
O19         Zr28   2.440       .  S
O19          C21   1.288       .  A
O20         Zr51   2.400   1_565  S
O20          C21   1.283       .  A
C21         C607   1.474       .  S
O22         Zr25   2.453       .  S
O22          C24   1.289       .  A
O23         Zr52   2.414       .  S
O23          C24   1.285   1_545  A
C24         C559   1.481       .  S
Zr25         O26   2.434       .  S
Zr25         O27   2.435   1_565  S
Zr25         O31   2.370       .  S
Zr25         O32   2.372       .  S
Zr25         O55   2.373   1_565  S
Zr25         O57   2.381   1_565  S
O26          H69   0.990       .  S
O27          H68   0.990       .  S
O27          H72   0.990       .  S
Zr28         O29   2.435       .  S
Zr28         O30   2.435       .  S
Zr28         O32   2.374       .  S
Zr28         O31   2.373       .  S
Zr28         O56   2.372   1_565  S
Zr28         O58   2.369   1_565  S
O29          H70   0.990       .  S
O29          H73   0.990       .  S
O30          H63   0.990       .  S
O31         Zr51   2.370   1_565  S
O32         Zr52   2.370   1_565  S
O32          H59   0.964       .  S
O33         Zr45   2.440       .  S
O33          C35   1.287       .  A
O34         Zr52   2.405       .  S
O34          C35   1.284       .  A
C35         C523   1.473       .  S
O36         Zr48   2.463       .  S
O36          C38   1.291       .  A
O37         Zr51   2.404       .  S
O37          C38   1.284       .  A
C38         C514   1.483       .  S
O39         Zr48   2.442       .  S
O39          C41   1.288       .  A
O40         Zr52   2.394       .  S
O40          C41   1.281       .  A
C41         C499   1.472       .  S
O42         Zr45   2.447       .  S
O42          C44   1.288       .  A
O43         Zr51   2.416       .  S
O43          C44   1.286       .  A
C44         C538   1.481       .  S
Zr45         O46   2.436       .  S
Zr45         O47   2.433       .  S
Zr45         O53   2.372       .  S
Zr45         O54   2.377       .  S
Zr45         O57   2.377       .  S
Zr45         O55   2.377       .  S
O46          H66   0.990       .  S
O46          H71   0.990       .  S
O47          H67   0.990       .  S
Zr48         O49   2.435       .  S
Zr48         O50   2.436       .  S
Zr48         O54   2.374       .  S
Zr48         O53   2.377       .  S
Zr48         O58   2.380       .  S
Zr48         O56   2.367       .  S
O49          H65   0.990       .  S
O50          H64   0.990       .  S
O50          H74   0.990       .  S
Zr51         O54   2.368       .  S
Zr51         O56   2.375       .  S
Zr51         O57   2.374       .  S
Zr52         O53   2.377       .  S
Zr52         O55   2.367       .  S
Zr52         O58   2.372       .  S
O53          H61   0.965       .  S
O56          H60   0.965       .  S
O57          H62   0.966       .  S
C75          N76   1.366       .  A
C75         N698   1.362       .  A
C75         C487   1.493       .  S
N76          C77   1.362       .  A
C77         N696   1.356       .  A
C77         C535   1.490       .  S
N78          C79   1.353   1_556  A
N78         C695   1.353       .  A
C79          N80   1.356       .  A
C79         C526   1.481       .  S
N80         C693   1.361   1_554  A
C81          N82   1.355       .  A
C81          N86   1.352   1_554  A
C81         C502   1.481       .  S
N82         C701   1.359   1_554  A
C83          N84   1.361       .  A
C83         N700   1.356       .  A
C83         C475   1.482       .  S
N84          C85   1.359       .  A
C85         N704   1.358       .  A
C85         C511   1.491       .  S
N86         C703   1.352       .  A
O87         Zr99   2.450       .  S
O87          C89   1.289       .  A
O88        Zr125   2.418       .  S
O88          C89   1.286       .  A
C89         C439   1.479       .  S
O90        Zr102   2.440       .  S
O90          C92   1.287       .  A
O91        Zr126   2.411       .  S
O91          C92   1.285       .  A
C92         C451   1.475       .  S
O93        Zr102   2.440       .  S
O93          C95   1.287       .  A
O94        Zr125   2.412       .  S
O94          C95   1.285       .  A
C95         C463   1.468       .  S
O96         Zr99   2.449       .  S
O96          C98   1.289       .  A
O97        Zr126   2.408       .  S
O97          C98   1.284       .  A
C98         C427   1.476       .  S
Zr99        O100   2.434       .  S
Zr99        O101   2.436       .  S
Zr99        O105   2.376       .  S
Zr99        O106   2.377       .  S
Zr99        O129   2.376       .  S
Zr99        O131   2.374       .  S
O100        H143   0.990       .  S
O101        H142   0.990       .  S
O101        H146   0.990       .  S
Zr102       O103   2.437       .  S
Zr102       O104   2.434       .  S
Zr102       O106   2.369       .  S
Zr102       O105   2.374       .  S
Zr102       O130   2.369       .  S
Zr102       O132   2.371       .  S
O103        H144   0.990       .  S
O103        H147   0.990       .  S
O104        H137   0.990       .  S
O105       Zr125   2.375       .  S
O106       Zr126   2.379       .  S
O106        H133   0.965       .  S
O107       Zr119   2.461   1_655  S
O107        C109   1.291   1_655  A
O108       Zr126   2.410       .  S
O108        C109   1.285       .  A
C109        C406   1.484   1_455  S
O110       Zr122   2.442       .  S
O110        C112   1.287       .  A
O111       Zr125   2.418   1_655  S
O111        C112   1.286       .  A
C112        C391   1.475       .  S
O113       Zr122   2.449       .  S
O113        C115   1.288       .  A
O114       Zr126   2.413   1_655  S
O114        C115   1.285       .  A
C115        C382   1.482       .  S
O116       Zr119   2.468   1_655  S
O116        C118   1.293   1_655  A
O117       Zr125   2.404       .  S
O117        C118   1.283       .  A
C118        C415   1.488   1_455  S
Zr119       O120   2.434   1_455  S
Zr119       O121   2.435       .  S
Zr119       O127   2.377   1_455  S
Zr119       O128   2.378   1_455  S
Zr119       O131   2.374       .  S
Zr119       O129   2.380       .  S
O120        H140   0.990       .  S
O120        H145   0.990       .  S
O121        H141   0.990       .  S
Zr122       O123   2.435       .  S
Zr122       O124   2.434       .  S
Zr122       O128   2.377       .  S
Zr122       O127   2.372       .  S
Zr122       O132   2.370   1_655  S
Zr122       O130   2.375   1_655  S
O123        H139   0.990       .  S
O124        H138   0.990       .  S
O124        H148   0.990       .  S
Zr125       O128   2.376   1_455  S
Zr125       O130   2.374       .  S
Zr125       O131   2.379       .  S
Zr126       O127   2.375   1_455  S
Zr126       O129   2.377       .  S
Zr126       O132   2.368       .  S
O127        H135   0.965       .  S
O130        H134   0.965       .  S
O131        H136   0.965       .  S
C149        N150   1.363       .  A
C149        N772   1.361       .  A
C149        C367   1.493       .  S
N150        C151   1.361       .  A
C151        N152   1.356       .  A
C151        C442   1.489       .  S
N152        C771   1.356       .  A
C153        N154   1.356       .  A
C153        N770   1.356   1_554  A
C153        C430   1.485       .  S
N154        C767   1.360   1_554  A
C155        N160   1.361       .  A
C155        N774   1.354       .  A
C155        C403   1.492       .  S
N156        C157   1.357       .  A
N156        C773   1.358       .  A
C157        N158   1.355       .  A
C157        C418   1.491       .  S
N158        C159   1.359       .  A
C159        N778   1.363       .  A
C159        C478   1.484       .  S
N160        C777   1.367   1_554  A
C161        N166   1.363       .  A
C161        N780   1.363       .  A
C161        C355   1.485       .  S
N162        C163   1.361       .  A
N162        C779   1.365       .  A
C163        N782   1.354   1_554  A
C163        C379   1.491       .  S
N164        C165   1.353       .  A
N164        C781   1.353       .  A
C165        N166   1.358       .  A
C165        C394   1.482       .  S
C167        N168   1.361       .  A
C167        N790   1.359       .  A
C167        C547   1.488       .  S
N168        C169   1.358       .  A
C169        N170   1.355       .  A
C169        C466   1.481       .  S
N170        C789   1.356       .  A
C171        N172   1.358       .  A
C171        N788   1.356   1_554  A
C171        C454   1.489       .  S
N172        C785   1.358   1_554  A
O173       Zr185   2.444       .  S
O173        C175   1.287       .  A
O174       Zr211   2.415       .  S
O174        C175   1.287       .  A
C175        C319   1.478       .  S
O176       Zr188   2.468       .  S
O176        C178   1.291       .  A
O177       Zr212   2.402       .  S
O177        C178   1.284       .  A
C178        C331   1.490       .  S
O179       Zr188   2.459       .  S
O179        C181   1.290       .  A
O180       Zr211   2.394       .  S
O180        C181   1.283       .  A
C181        C343   1.489       .  S
O182       Zr185   2.448       .  S
O182        C184   1.288       .  A
O183       Zr212   2.404       .  S
O183        C184   1.284       .  A
C184        C307   1.486       .  S
Zr185       O186   2.434       .  S
Zr185       O187   2.436       .  S
Zr185       O191   2.370       .  S
Zr185       O192   2.368       .  S
Zr185       O215   2.374       .  S
Zr185       O217   2.379       .  S
O186        H229   0.990       .  S
O187        H228   0.990       .  S
O187        H232   0.990       .  S
Zr188       O189   2.437       .  S
Zr188       O190   2.434       .  S
Zr188       O192   2.373       .  S
Zr188       O191   2.373       .  S
Zr188       O216   2.382       .  S
Zr188       O218   2.381       .  S
O189        H230   0.990       .  S
O189        H233   0.990       .  S
O190        H223   0.990       .  S
O191       Zr211   2.370       .  S
O192       Zr212   2.374       .  S
O192        H219   0.967       .  S
O193       Zr205   2.445       .  S
O193        C195   1.289       .  A
O194       Zr212   2.415       .  S
O194        C195   1.286       .  A
C195        C286   1.480       .  S
O196       Zr208   2.455       .  S
O196        C198   1.290       .  A
O197       Zr211   2.414       .  S
O197        C198   1.285       .  A
C198        C274   1.481       .  S
O199       Zr208   2.454       .  S
O199        C201   1.289       .  A
O200       Zr212   2.411       .  S
O200        C201   1.285       .  A
C201        C262   1.479       .  S
O202       Zr205   2.462       .  S
O202        C204   1.291       .  A
O203       Zr211   2.408       .  S
O203        C204   1.284       .  A
C204        C295   1.487       .  S
Zr205       O206   2.434       .  S
Zr205       O207   2.434       .  S
Zr205       O213   2.378       .  S
Zr205       O214   2.371       .  S
Zr205       O217   2.373       .  S
Zr205       O215   2.379       .  S
O206        H226   0.990       .  S
O206        H231   0.990       .  S
O207        H227   0.990       .  S
Zr208       O209   2.435       .  S
Zr208       O210   2.438       .  S
Zr208       O214   2.377       .  S
Zr208       O213   2.377       .  S
Zr208       O218   2.379       .  S
Zr208       O216   2.380       .  S
O209        H225   0.990       .  S
O210        H224   0.990       .  S
O210        H234   0.990       .  S
Zr211       O214   2.368       .  S
Zr211       O216   2.379       .  S
Zr211       O217   2.375       .  S
Zr212       O213   2.374       .  S
Zr212       O215   2.373       .  S
Zr212       O218   2.374       .  S
O213        H221   0.966       .  S
O216        H220   0.968       .  S
O217        H222   0.967       .  S
C235        N236   1.364       .  A
C235        N858   1.364       .  A
C235        C490   1.492       .  S
N236        C237   1.359       .  A
C237        N238   1.353       .  A
C237        C334   1.492       .  S
N238        C857   1.352       .  A
C239        N240   1.359       .  A
C239        N856   1.351       .  A
C239        C346   1.483       .  S
N240        C853   1.365       .  A
C241        N246   1.362       .  A
C241        N860   1.367       .  A
C241        C370   1.495       .  S
N242        C243   1.361       .  A
N242        C859   1.366       .  A
C243        N862   1.354       .  A
C243        C271   1.490       .  S
N244        C245   1.354       .  A
N244        C861   1.355       .  A
C245        N246   1.355       .  A
C245        C259   1.486       .  S
C247        N248   1.364       .  A
C247        N870   1.360       .  A
C247        C358   1.485       .  S
N248        C249   1.360       .  A
C249        N250   1.353       .  A
C249        C310   1.487       .  S
N250        C869   1.351       .  A
C251        N252   1.357       .  A
C251        N868   1.351       .  A
C251        C322   1.480       .  S
N252        C865   1.362       .  A
C253        N254   1.363       .  A
C253        N876   1.363       .  A
C253        C583   1.487       .  S
N254        C255   1.358       .  A
C255        N256   1.354       .  A
C255        C283   1.490       .  S
N256        C875   1.355       .  A
C257        N258   1.357       .  A
C257        N874   1.359       .  A
C257        C298   1.491       .  S
N258        C871   1.362       .  A
C259        C260   1.404       .  A
C259        C264   1.414       .  A
C260        C261   1.395       .  A
C260        H265   1.083       .  S
C261        C262   1.407       .  A
C261        O266   1.370       .  S
C262        C263   1.404       .  A
C263        C264   1.405       .  A
C263        H267   1.084       .  S
C264        O268   1.371       .  S
O266        H270   0.992       .  S
O268        H269   0.992       .  S
C271        C272   1.408       .  A
C271        C276   1.415       .  A
C272        C273   1.407       .  A
C272        H277   1.083       .  S
C273        C274   1.410       .  A
C273        O278   1.371       .  S
C274        C275   1.401       .  A
C275        C276   1.396       .  A
C275        H279   1.084       .  S
C276        O280   1.372       .  S
O278        H282   0.992       .  S
O280        H281   0.992       .  S
C283        C284   1.408       .  A
C283        C288   1.414       .  A
C284        C285   1.395       .  A
C284        H289   1.083       .  S
C285        C286   1.408       .  A
C285        O290   1.372       .  S
C286        C287   1.405       .  A
C287        C288   1.403       .  A
C287        H291   1.084       .  S
C288        O292   1.371       .  S
O290        H294   0.992       .  S
O292        H293   0.992       .  S
C295        C296   1.405       .  A
C295        C300   1.409       .  A
C296        C297   1.410       .  A
C296        H301   1.083       .  S
C297        C298   1.416       .  A
C297        O302   1.371       .  S
C298        C299   1.402       .  A
C299        C300   1.392       .  A
C299        H303   1.084       .  S
C300        O304   1.367       .  S
O302        H306   0.992       .  S
O304        H305   0.992       .  S
C307        C308   1.404       .  A
C307        C312   1.413       .  A
C308        C309   1.390       .  A
C308        H313   1.083       .  S
C309        C310   1.414       .  A
C309        O314   1.372       .  S
C310        C311   1.407       .  A
C311        C312   1.405       .  A
C311        H315   1.083       .  S
C312        O316   1.371       .  S
O314        H318   0.992       .  S
O316        H317   0.992       .  S
C319        C320   1.398       .  A
C319        C324   1.409       .  A
C320        C321   1.391       .  A
C320        H325   1.074       .  S
C321        C322   1.410       .  A
C321        O326   1.374       .  S
C322        C323   1.407       .  A
C323        C324   1.405       .  A
C323        H327   1.083       .  S
C324        O328   1.371       .  S
O326        H330   0.992       .  S
O328        H329   0.992       .  S
C331        C332   1.403       .  A
C331        C336   1.412       .  A
C332        C333   1.390       .  A
C332        H337   1.080       .  S
C333        C334   1.414       .  A
C333        O338   1.371       .  S
C334        C335   1.410       .  A
C335        C336   1.408       .  A
C335        H339   1.083       .  S
C336        O340   1.371       .  S
O338        H342   0.992       .  S
O340        H341   0.992       .  S
C343        C344   1.406       .  A
C343        C348   1.415       .  A
C344        C345   1.388       .  A
C344        H349   1.083       .  S
C345        C346   1.411       .  A
C345        O350   1.372       .  S
C346        C347   1.406       .  A
C347        C348   1.408       .  A
C347        H351   1.083       .  S
C348        O352   1.371       .  S
O350        H354   0.992       .  S
O352        H353   0.992       .  S
C355        C360   1.412       .  A
C355        C974   1.405       .  A
C356        C357   1.400       .  A
C356        C973   1.405       .  A
C356        H361   1.083       .  S
C357        C976   1.413       .  A
C357        O362   1.372       .  S
C358        C359   1.405       .  A
C358        C975   1.413       .  A
C359        C360   1.400       .  A
C359        H363   1.083       .  S
C360        O364   1.371       .  S
O362        H366   0.992       .  S
O364        H365   0.992       .  S
C367        C372   1.412       .  A
C367        C986   1.409       .  A
C368        C369   1.399       .  A
C368        C985   1.408   1_554  A
C368        H373   1.083       .  S
C369        C988   1.411       .  A
C369        O374   1.371       .  S
C370        C371   1.409       .  A
C370        C987   1.413       .  A
C371        C372   1.400       .  A
C371        H375   1.083       .  S
C372        O376   1.372       .  S
O374        H378   0.992       .  S
O376        H377   0.992       .  S
C379        C380   1.408       .  A
C379        C384   1.415       .  A
C380        C381   1.405       .  A
C380        H385   1.083       .  S
C381        C382   1.411       .  A
C381        O386   1.371       .  S
C382        C383   1.402       .  A
C383        C384   1.396       .  A
C383        H387   1.084       .  S
C384        O388   1.372       .  S
O386        H390   0.992       .  S
O388        H389   0.992       .  S
C391        C392   1.405       .  A
C391        C396   1.406       .  A
C392        C393   1.404       .  A
C392        H397   1.084       .  S
C393        C394   1.411       .  A
C393        O398   1.371       .  S
C394        C395   1.406       .  A
C395        C396   1.395       .  A
C395        H399   1.083       .  S
C396        O400   1.373       .  S
O398        H402   0.992       .  S
O400        H401   0.992       .  S
C403        C404   1.408   1_655  A
C403        C408   1.414       .  A
C404        C405   1.396       .  A
C404        H409   1.083       .  S
C405        C406   1.409   1_455  A
C405        O410   1.373       .  S
C406        C407   1.406       .  A
C407        C408   1.407       .  A
C407        H411   1.083       .  S
C408        O412   1.371       .  S
O410        H414   0.992       .  S
O412        H413   0.992       .  S
C415        C416   1.405       .  A
C415        C420   1.414   1_655  A
C416        C417   1.404       .  A
C416        H421   1.083       .  S
C417        C418   1.416       .  A
C417        O422   1.370       .  S
C418        C419   1.404       .  A
C419        C420   1.396   1_655  A
C419        H423   1.083   1_655  S
C420        O424   1.373       .  S
O422        H426   0.992       .  S
O424        H425   0.992       .  S
C427        C428   1.402       .  A
C427        C432   1.408       .  A
C428        C429   1.394       .  A
C428        H433   1.084       .  S
C429        C430   1.411       .  A
C429        O434   1.370       .  S
C430        C431   1.409       .  A
C431        C432   1.402       .  A
C431        H435   1.083       .  S
C432        O436   1.372       .  S
O434        H438   0.992       .  S
O436        H437   0.992       .  S
C439        C440   1.401       .  A
C439        C444   1.409       .  A
C440        C441   1.398       .  A
C440        H445   1.084       .  S
C441        C442   1.414       .  A
C441        O446   1.371       .  S
C442        C443   1.408       .  A
C443        C444   1.404       .  A
C443        H447   1.083       .  S
C444        O448   1.371       .  S
O446        H450   0.992       .  S
O448        H449   0.992       .  S
C451        C452   1.402       .  A
C451        C456   1.407       .  A
C452        C453   1.398       .  A
C452        H457   1.084       .  S
C453        C454   1.415       .  A
C453        O458   1.371       .  S
C454        C455   1.408       .  A
C455        C456   1.398       .  A
C455        H459   1.083       .  S
C456        O460   1.371       .  S
O458        H462   0.992       .  S
O460        H461   0.992       .  S
C463        C464   1.399       .  A
C463        C468   1.406       .  A
C464        C465   1.398       .  A
C464        H469   1.084       .  S
C465        C466   1.411       .  A
C465        O470   1.373       .  S
C466        C467   1.407       .  A
C467        C468   1.402       .  A
C467        H471   1.083       .  S
C468        O472   1.372       .  S
O470        H474   0.992       .  S
O472        H473   0.992       .  S
C475        C480   1.413       .  A
C475       C1094   1.402       .  A
C476        C477   1.398       .  A
C476       C1093   1.403       .  A
C476        H481   1.083       .  S
C477       C1096   1.416       .  A
C477        O482   1.371       .  S
C478        C479   1.404       .  A
C478       C1095   1.414       .  A
C479        C480   1.399       .  A
C479        H483   1.083       .  S
C480        O484   1.371       .  S
O482        H486   0.992       .  S
O484        H485   0.992       .  S
C487        C492   1.412       .  A
C487       C1106   1.409       .  A
C488        C489   1.398       .  A
C488       C1105   1.406   1_554  A
C488        H493   1.083       .  S
C489       C1108   1.412       .  A
C489        O494   1.371       .  S
C490        C491   1.408       .  A
C490       C1107   1.412       .  A
C491        C492   1.402       .  A
C491        H495   1.083       .  S
C492        O496   1.371       .  S
O494        H498   0.992       .  S
O496        H497   0.992       .  S
C499        C500   1.402       .  A
C499        C504   1.409       .  A
C500        C501   1.398       .  A
C500        H505   1.084       .  S
C501        C502   1.412       .  A
C501        O506   1.370       .  S
C502        C503   1.406       .  A
C503        C504   1.392       .  A
C503        H507   1.083       .  S
C504        O508   1.374       .  S
O506        H510   0.992       .  S
O508        H509   0.992       .  S
C511        C512   1.411       .  A
C511        C516   1.413       .  A
C512        C513   1.405       .  A
C512        H517   1.083       .  S
C513        C514   1.408       .  A
C513        O518   1.371       .  S
C514        C515   1.405       .  A
C515        C516   1.395       .  A
C515        H519   1.084       .  S
C516        O520   1.372       .  S
O518        H522   0.992       .  S
O520        H521   0.992       .  S
C523        C524   1.404       .  A
C523        C528   1.407       .  A
C524        C525   1.401       .  A
C524        H529   1.084       .  S
C525        C526   1.412       .  A
C525        O530   1.371       .  S
C526        C527   1.405       .  A
C527        C528   1.392       .  A
C527        H531   1.083       .  S
C528        O532   1.373       .  S
O530        H534   0.992       .  S
O532        H533   0.992       .  S
C535        C536   1.409       .  A
C535        C540   1.414       .  A
C536        C537   1.407       .  A
C536        H541   1.083       .  S
C537        C538   1.411       .  A
C537        O542   1.371       .  S
C538        C539   1.400       .  A
C539        C540   1.395       .  A
C539        H543   1.084       .  S
C540        O544   1.372       .  S
O542        H546   0.992       .  S
O544        H545   0.992       .  S
C547        C548   1.404       .  A
C547       C1170   1.414       .  A
C548        C549   1.398       .  A
C548        H553   1.083       .  S
C549        C550   1.412       .  A
C549        O554   1.372       .  S
C550       C1169   1.406       .  A
C551        C552   1.400       .  A
C551       C1168   1.404   1_554  A
C551        H555   1.083       .  S
C552       C1165   1.413       .  A
C552        O556   1.372       .  S
O554        H558   0.992       .  S
O556        H557   0.992       .  S
C559        C560   1.402   1_565  A
C559        C564   1.409       .  A
C560        C561   1.398   1_545  A
C560        H565   1.084       .  S
C561        C562   1.415       .  A
C561        O566   1.372   1_565  S
C562        C563   1.409       .  A
C563        C564   1.405       .  A
C563        H567   1.083       .  S
C564        O568   1.372       .  S
O566        H570   0.992       .  S
O568        H569   0.992       .  S
C571        C572   1.404       .  A
C571        C576   1.413       .  A
C572        C573   1.391   1_565  A
C572        H577   1.083   1_565  S
C573        C574   1.407   1_545  A
C573        O578   1.373       .  S
C574        C575   1.405       .  A
C575        C576   1.404       .  A
C575        H579   1.084       .  S
C576        O580   1.370       .  S
O578        H582   0.992       .  S
O580        H581   0.992       .  S
C583        C584   1.406       .  A
C583       C1206   1.412       .  A
C584        C585   1.400       .  A
C584        H589   1.083       .  S
C585        C586   1.413       .  A
C585        O590   1.371       .  S
C586       C1205   1.405       .  A
C587        C588   1.398       .  A
C587       C1204   1.404   1_554  A
C587        H591   1.083       .  S
C588       C1201   1.409   1_554  A
C588        O592   1.372       .  S
O590        H594   0.992       .  S
O592        H593   0.992       .  S
C595        C596   1.407       .  A
C595        C600   1.413       .  A
C596        C597   1.406       .  A
C596        H601   1.083       .  S
C597        C598   1.411       .  A
C597        O602   1.371       .  S
C598        C599   1.401       .  A
C599        C600   1.390       .  A
C599        H603   1.084       .  S
C600        O604   1.372       .  S
O602        H606   0.992       .  S
O604        H605   0.992       .  S
C607        C608   1.405       .  A
C607        C612   1.408       .  A
C608        C609   1.402       .  A
C608        H613   1.084       .  S
C609        C610   1.412       .  A
C609        O614   1.370       .  S
C610        C611   1.406       .  A
C611        C612   1.391       .  A
C611        H615   1.083       .  S
C612        O616   1.373       .  S
O614        H618   0.992       .  S
O616        H617   0.992       .  S
C619        N620   1.363       .  A
C619       C1204   1.482       .  S
N620        C621   1.358       .  A
C621       C1228   1.486       .  S
N622        C623   1.352       .  A
C623        N624   1.357       .  A
C623       C1213   1.483       .  S
C625        N626   1.359       .  A
C625       C1168   1.486       .  S
N626        C627   1.356       .  A
C627       C1189   1.483       .  S
N628        C629   1.352       .  A
C629        N630   1.360       .  A
C629       C1180   1.484       .  S
O631       Zr643   2.448       .  S
O631        C633   1.289       .  A
O632       Zr669   2.417       .  S
O632        C633   1.285   1_545  A
C633       C1192   1.479       .  S
O634       Zr646   2.460       .  S
O634        C636   1.291       .  A
O635       Zr670   2.398   1_565  S
O635        C636   1.283       .  A
C636       C1216   1.479       .  S
O637       Zr646   2.447       .  S
O637        C639   1.289       .  A
O638       Zr669   2.411   1_565  S
O638        C639   1.285       .  A
C639       C1225   1.483       .  S
O640       Zr643   2.443       .  S
O640        C642   1.288       .  A
O641       Zr670   2.401       .  S
O641        C642   1.283   1_545  A
C642       C1177   1.475       .  S
Zr643       O644   2.434       .  S
Zr643       O645   2.433   1_565  S
Zr643       O649   2.375       .  S
Zr643       O650   2.374       .  S
Zr643       O673   2.377   1_565  S
Zr643       O675   2.370   1_565  S
O644        H687   0.990       .  S
O645        H686   0.990   1_545  S
O645        H690   0.990       .  S
Zr646       O647   2.435       .  S
Zr646       O648   2.435       .  S
Zr646       O650   2.373       .  S
Zr646       O649   2.378       .  S
Zr646       O674   2.372   1_565  S
Zr646       O676   2.373   1_565  S
O647        H688   0.990       .  S
O647        H691   0.990       .  S
O648        H681   0.990       .  S
O649       Zr669   2.369   1_565  S
O650       Zr670   2.376   1_565  S
O650        H677   0.964       .  S
O651       Zr663   2.459       .  S
O651        C653   1.291       .  A
O652       Zr670   2.406       .  S
O652        C653   1.283       .  A
C653       C1141   1.487       .  S
O654       Zr666   2.438       .  S
O654        C656   1.286       .  A
O655       Zr669   2.406       .  S
O655        C656   1.284       .  A
C656       C1132   1.469       .  S
O657       Zr666   2.443       .  S
O657        C659   1.288       .  A
O658       Zr670   2.398       .  S
O658        C659   1.282       .  A
C659       C1117   1.472       .  S
O660       Zr663   2.444       .  S
O660        C662   1.288       .  A
O661       Zr669   2.401       .  S
O661        C662   1.284       .  A
C662       C1156   1.469       .  S
Zr663       O664   2.435       .  S
Zr663       O665   2.434       .  S
Zr663       O671   2.372       .  S
Zr663       O672   2.377       .  S
Zr663       O675   2.380       .  S
Zr663       O673   2.372       .  S
O664        H684   0.990       .  S
O664        H689   0.990       .  S
O665        H685   0.990       .  S
Zr666       O667   2.435       .  S
Zr666       O668   2.435       .  S
Zr666       O672   2.373       .  S
Zr666       O671   2.369       .  S
Zr666       O676   2.371       .  S
Zr666       O674   2.371       .  S
O667        H683   0.990       .  S
O668        H682   0.990       .  S
O668        H692   0.990       .  S
Zr669       O672   2.375       .  S
Zr669       O674   2.375       .  S
Zr669       O675   2.376       .  S
Zr670       O671   2.372       .  S
Zr670       O673   2.368       .  S
Zr670       O676   2.371       .  S
O671        H679   0.965       .  S
O674        H678   0.965       .  S
O675        H680   0.966       .  S
C693        N694   1.360       .  A
C693       C1105   1.485       .  S
N694        C695   1.356       .  A
C695       C1153   1.476       .  S
N696        C697   1.355       .  A
C697        N698   1.356       .  A
C697       C1144   1.491       .  S
C699        N700   1.354       .  A
C699        N704   1.358       .  A
C699       C1120   1.484       .  S
C701        N702   1.363       .  A
C701       C1093   1.487       .  S
N702        C703   1.359       .  A
C703       C1129   1.480       .  S
O705       Zr717   2.439       .  S
O705        C707   1.287       .  A
O706       Zr743   2.426       .  S
O706        C707   1.287       .  A
C707       C1057   1.476       .  S
O708       Zr720   2.441       .  S
O708        C710   1.287       .  A
O709       Zr744   2.410       .  S
O709        C710   1.285       .  A
C710       C1069   1.477       .  S
O711       Zr720   2.447       .  S
O711        C713   1.288       .  A
O712       Zr743   2.406       .  S
O712        C713   1.283       .  A
C713       C1081   1.469       .  S
O714       Zr717   2.444       .  S
O714        C716   1.287       .  A
O715       Zr744   2.408       .  S
O715        C716   1.284       .  A
C716       C1045   1.473       .  S
Zr717       O718   2.434       .  S
Zr717       O719   2.437       .  S
Zr717       O723   2.379       .  S
Zr717       O724   2.372       .  S
Zr717       O747   2.373       .  S
Zr717       O749   2.372       .  S
O718        H761   0.990       .  S
O719        H760   0.990       .  S
O719        H764   0.990       .  S
Zr720       O721   2.435       .  S
Zr720       O722   2.437       .  S
Zr720       O724   2.378       .  S
Zr720       O723   2.375       .  S
Zr720       O748   2.369       .  S
Zr720       O750   2.370       .  S
O721        H762   0.990       .  S
O721        H765   0.990       .  S
O722        H755   0.990       .  S
O723       Zr743   2.373       .  S
O724       Zr744   2.374       .  S
O724        H751   0.965       .  S
O725       Zr737   2.452   1_655  S
O725        C727   1.290       .  A
O726       Zr744   2.410       .  S
O726        C727   1.285   1_455  A
C727       C1024   1.478       .  S
O728       Zr740   2.441       .  S
O728        C730   1.287       .  A
O729       Zr743   2.411   1_655  S
O729        C730   1.285       .  A
C730       C1009   1.473       .  S
O731       Zr740   2.451       .  S
O731        C733   1.289       .  A
O732       Zr744   2.398   1_655  S
O732        C733   1.283       .  A
C733       C1000   1.477       .  S
O734       Zr737   2.453   1_655  S
O734        C736   1.290   1_655  A
O735       Zr743   2.397       .  S
O735        C736   1.282       .  A
C736       C1033   1.483   1_455  S
Zr737       O738   2.436   1_455  S
Zr737       O739   2.433       .  S
Zr737       O745   2.376   1_455  S
Zr737       O746   2.373   1_455  S
Zr737       O749   2.376       .  S
Zr737       O747   2.379       .  S
O738        H758   0.990       .  S
O738        H763   0.990       .  S
O739        H759   0.990       .  S
Zr740       O741   2.434       .  S
Zr740       O742   2.435       .  S
Zr740       O746   2.378       .  S
Zr740       O745   2.372       .  S
Zr740       O750   2.370   1_655  S
Zr740       O748   2.376   1_655  S
O741        H757   0.990       .  S
O742        H756   0.990       .  S
O742        H766   0.990       .  S
Zr743       O746   2.377   1_455  S
Zr743       O748   2.378       .  S
Zr743       O749   2.379       .  S
Zr744       O745   2.380   1_455  S
Zr744       O747   2.374       .  S
Zr744       O750   2.372       .  S
O745        H753   0.965       .  S
O748        H752   0.966       .  S
O749        H754   0.965       .  S
C767        N768   1.364       .  A
C767        C985   1.492       .  S
N768        C769   1.363       .  A
C769        N770   1.356       .  A
C769       C1060   1.488       .  S
C771        N772   1.358       .  A
C771       C1048   1.484       .  S
C773        N778   1.360       .  A
C773       C1021   1.490       .  S
N774        C775   1.353   1_554  A
C775        N776   1.354       .  A
C775       C1036   1.484       .  S
N776        C777   1.359       .  A
C777       C1096   1.490       .  S
C779        N784   1.360   1_554  A
C779        C973   1.487       .  S
N780        C781   1.357       .  A
C781        C997   1.485       .  S
N782        C783   1.355       .  A
C783        N784   1.355       .  A
C783       C1012   1.482       .  S
C785        N786   1.360       .  A
C785       C1165   1.486   1_556  S
N786        C787   1.360       .  A
C787        N788   1.357       .  A
C787       C1084   1.483       .  S
C789        N790   1.358       .  A
C789       C1072   1.487       .  S
O791       Zr803   2.439       .  S
O791        C793   1.286       .  A
O792       Zr829   2.406       .  S
O792        C793   1.284       .  A
C793        C937   1.465       .  S
O794       Zr806   2.439       .  S
O794        C796   1.287       .  A
O795       Zr830   2.413       .  S
O795        C796   1.286       .  A
C796        C949   1.476       .  S
O797       Zr806   2.432       .  S
O797        C799   1.284       .  A
O798       Zr829   2.420       .  S
O798        C799   1.286       .  A
C799        C961   1.468       .  S
O800       Zr803   2.464       .  S
O800        C802   1.291       .  A
O801       Zr830   2.395       .  S
O801        C802   1.283       .  A
C802        C925   1.490       .  S
Zr803       O804   2.436       .  S
Zr803       O805   2.436       .  S
Zr803       O809   2.380       .  S
Zr803       O810   2.365       .  S
Zr803       O833   2.374       .  S
Zr803       O835   2.381       .  S
O804        H847   0.990       .  S
O805        H846   0.990       .  S
O805        H850   0.990       .  S
Zr806       O807   2.437       .  S
Zr806       O808   2.433       .  S
Zr806       O810   2.363       .  S
Zr806       O809   2.369       .  S
Zr806       O834   2.378       .  S
Zr806       O836   2.380       .  S
O807        H848   0.990       .  S
O807        H851   0.991       .  S
O808        H841   0.990       .  S
O809       Zr829   2.378       .  S
O810       Zr830   2.373       .  S
O810        H837   0.967       .  S
O811       Zr823   2.449       .  S
O811        C813   1.289       .  A
O812       Zr830   2.404       .  S
O812        C813   1.283       .  A
C813        C904   1.479       .  S
O814       Zr826   2.447       .  S
O814        C816   1.288       .  A
O815       Zr829   2.420       .  S
O815        C816   1.286       .  A
C816        C892   1.481       .  S
O817       Zr826   2.448       .  S
O817        C819   1.288       .  A
O818       Zr830   2.404       .  S
O818        C819   1.283       .  A
C819        C880   1.475       .  S
O820       Zr823   2.449       .  S
O820        C822   1.289       .  A
O821       Zr829   2.407       .  S
O821        C822   1.284       .  A
C822        C913   1.481       .  S
Zr823       O824   2.436       .  S
Zr823       O825   2.435       .  S
Zr823       O831   2.368       .  S
Zr823       O832   2.373       .  S
Zr823       O835   2.375       .  S
Zr823       O833   2.382       .  S
O824        H844   0.990       .  S
O824        H849   0.990       .  S
O825        H845   0.990       .  S
Zr826       O827   2.433       .  S
Zr826       O828   2.436       .  S
Zr826       O832   2.373       .  S
Zr826       O831   2.373       .  S
Zr826       O836   2.378       .  S
Zr826       O834   2.377       .  S
O827        H843   0.990       .  S
O828        H842   0.990       .  S
O828        H852   0.990       .  S
Zr829       O832   2.371       .  S
Zr829       O834   2.375       .  S
Zr829       O835   2.386       .  S
Zr830       O831   2.372       .  S
Zr830       O833   2.379       .  S
Zr830       O836   2.371       .  S
O831        H839   0.965       .  S
O834        H838   0.967       .  S
O835        H840   0.967       .  S
C853        N854   1.363   1_554  A
C853       C1108   1.488       .  S
N854        C855   1.355       .  A
C855        N856   1.349   1_556  A
C855        C952   1.481       .  S
C857        N858   1.359       .  A
C857        C964   1.481       .  S
C859        N864   1.361   1_554  A
C859        C988   1.492       .  S
N860        C861   1.364       .  A
C861        C889   1.493       .  S
N862        C863   1.354   1_554  A
C863        N864   1.355       .  A
C863        C877   1.482       .  S
C865        N866   1.365   1_554  A
C865        C976   1.483       .  S
N866        C867   1.358       .  A
C867        N868   1.351   1_556  A
C867        C928   1.483       .  S
C869        N870   1.354       .  A
C869        C940   1.471       .  S
C871        N872   1.359   1_554  A
C871       C1201   1.482   1_554  S
N872        C873   1.356       .  A
C873        N874   1.358   1_556  A
C873        C901   1.489       .  S
C875        N876   1.358       .  A
C875        C916   1.488       .  S
C877        C878   1.403       .  A
C877        C882   1.414       .  A
C878        C879   1.392       .  A
C878        H883   1.083       .  S
C879        C880   1.406       .  A
C879        O884   1.370       .  S
C880        C881   1.404       .  A
C881        C882   1.404       .  A
C881        H885   1.084       .  S
C882        O886   1.371       .  S
O884        H888   0.992       .  S
O886        H887   0.992       .  S
C889        C890   1.408       .  A
C889        C894   1.417       .  A
C890        C891   1.406       .  A
C890        H895   1.083       .  S
C891        C892   1.410       .  A
C891        O896   1.371       .  S
C892        C893   1.400       .  A
C893        C894   1.398       .  A
C893        H897   1.084       .  S
C894        O898   1.372       .  S
O896        H900   0.992       .  S
O898        H899   0.992       .  S
C901        C902   1.406       .  A
C901        C906   1.416       .  A
C902        C903   1.394       .  A
C902        H907   1.083       .  S
C903        C904   1.410       .  A
C903        O908   1.373       .  S
C904        C905   1.404       .  A
C905        C906   1.403       .  A
C905        H909   1.084       .  S
C906        O910   1.371       .  S
O908        H912   0.992       .  S
O910        H911   0.992       .  S
C913        C914   1.406       .  A
C913        C918   1.408       .  A
C914        C915   1.406       .  A
C914        H919   1.084       .  S
C915        C916   1.414       .  A
C915        O920   1.370       .  S
C916        C917   1.405       .  A
C917        C918   1.392       .  A
C917        H921   1.083       .  S
C918        O922   1.372       .  S
O920        H924   0.992       .  S
O922        H923   0.992       .  S
C925        C926   1.407       .  A
C925        C930   1.414       .  A
C926        C927   1.390       .  A
C926        H931   1.083       .  S
C927        C928   1.411       .  A
C927        O932   1.372       .  S
C928        C929   1.406       .  A
C929        C930   1.407       .  A
C929        H933   1.083       .  S
C930        O934   1.371       .  S
O932        H936   0.992       .  S
O934        H935   0.992       .  S
C937        C938   1.399       .  A
C937        C942   1.406       .  A
C938        C939   1.394       .  A
C938        H943   1.082       .  S
C939        C940   1.409       .  A
C939        O944   1.373       .  S
C940        C941   1.404       .  A
C941        C942   1.400       .  A
C941        H945   1.084       .  S
C942        O946   1.371       .  S
O944        H948   0.992       .  S
O946        H947   0.992       .  S
C949        C950   1.399       .  A
C949        C954   1.410       .  A
C950        C951   1.393       .  A
C950        H955   1.079       .  S
C951        C952   1.412       .  A
C951        O956   1.373       .  S
C952        C953   1.406       .  A
C953        C954   1.402       .  A
C953        H957   1.083       .  S
C954        O958   1.371       .  S
O956        H960   0.992       .  S
O958        H959   0.992       .  S
C961        C962   1.398       .  A
C961        C966   1.407       .  A
C962        C963   1.398       .  A
C962        H967   1.084       .  S
C963        C964   1.413       .  A
C963        O968   1.373       .  S
C964        C965   1.405       .  A
C965        C966   1.402       .  A
C965        H969   1.083       .  S
C966        O970   1.372       .  S
O968        H972   0.992       .  S
O970        H971   0.992       .  S
C973        C978   1.414   1_554  A
C974        C975   1.398       .  A
C974        H979   1.083       .  S
C975        O980   1.372       .  S
C976        C977   1.403   1_554  A
C977        C978   1.397       .  A
C977        H981   1.084       .  S
C978        O982   1.370       .  S
O980        H984   0.992       .  S
O982        H983   0.992       .  S
C985        C990   1.412       .  A
C986        C987   1.403       .  A
C986        H991   1.083       .  S
C987        O992   1.371       .  S
C988        C989   1.410   1_554  A
C989        C990   1.401       .  A
C989        H993   1.083       .  S
C990        O994   1.371       .  S
O992        H996   0.992       .  S
O994        H995   0.992       .  S
C997        C998   1.408       .  A
C997       C1002   1.413       .  A
C998        C999   1.404       .  A
C998       H1003   1.083       .  S
C999       C1000   1.409       .  A
C999       O1004   1.372       .  S
C1000      C1001   1.401       .  A
C1001      C1002   1.392       .  A
C1001      H1005   1.084       .  S
C1002      O1006   1.372       .  S
O1004      H1008   0.992       .  S
O1006      H1007   0.992       .  S
C1009      C1010   1.403       .  A
C1009      C1014   1.406       .  A
C1010      C1011   1.403       .  A
C1010      H1015   1.084       .  S
C1011      C1012   1.413       .  A
C1011      O1016   1.370       .  S
C1012      C1013   1.404       .  A
C1013      C1014   1.393       .  A
C1013      H1017   1.083       .  S
C1014      O1018   1.372       .  S
O1016      H1020   0.992       .  S
O1018      H1019   0.991       .  S
C1021      C1022   1.407       .  A
C1021      C1026   1.415       .  A
C1022      C1023   1.396   1_655  A
C1022      H1027   1.083   1_655  S
C1023      C1024   1.407   1_455  A
C1023      O1028   1.373       .  S
C1024      C1025   1.404       .  A
C1025      C1026   1.405       .  A
C1025      H1029   1.084       .  S
C1026      O1030   1.371       .  S
O1028      H1032   0.992       .  S
O1030      H1031   0.992       .  S
C1033      C1034   1.406       .  A
C1033      C1038   1.413   1_655  A
C1034      C1035   1.402       .  A
C1034      H1039   1.083       .  S
C1035      C1036   1.413       .  A
C1035      O1040   1.371       .  S
C1036      C1037   1.404       .  A
C1037      C1038   1.392   1_655  A
C1037      H1041   1.083   1_655  S
C1038      O1042   1.373       .  S
O1040      H1044   0.992       .  S
O1042      H1043   0.992       .  S
C1045      C1046   1.401       .  A
C1045      C1050   1.408       .  A
C1046      C1047   1.394       .  A
C1046      H1051   1.084       .  S
C1047      C1048   1.412       .  A
C1047      O1052   1.371       .  S
C1048      C1049   1.408       .  A
C1049      C1050   1.403       .  A
C1049      H1053   1.083       .  S
C1050      O1054   1.372       .  S
O1052      H1056   0.992       .  S
O1054      H1055   0.992       .  S
C1057      C1058   1.400       .  A
C1057      C1062   1.409       .  A
C1058      C1059   1.400       .  A
C1058      H1063   1.084       .  S
C1059      C1060   1.415       .  A
C1059      O1064   1.372       .  S
C1060      C1061   1.406       .  A
C1061      C1062   1.403       .  A
C1061      H1065   1.083       .  S
C1062      O1066   1.371       .  S
O1064      H1068   0.992       .  S
O1066      H1067   0.992       .  S
C1069      C1070   1.402       .  A
C1069      C1074   1.409       .  A
C1070      C1071   1.396       .  A
C1070      H1075   1.084       .  S
C1071      C1072   1.414       .  A
C1071      O1076   1.371       .  S
C1072      C1073   1.408       .  A
C1073      C1074   1.400       .  A
C1073      H1077   1.083       .  S
C1074      O1078   1.371       .  S
O1076      H1080   0.992       .  S
O1078      H1079   0.992       .  S
C1081      C1082   1.400       .  A
C1081      C1086   1.405       .  A
C1082      C1083   1.399       .  A
C1082      H1087   1.084       .  S
C1083      C1084   1.412       .  A
C1083      O1088   1.373       .  S
C1084      C1085   1.407       .  A
C1085      C1086   1.400       .  A
C1085      H1089   1.083       .  S
C1086      O1090   1.372       .  S
O1088      H1092   0.992       .  S
O1090      H1091   0.992       .  S
C1093      C1098   1.414   1_556  A
C1094      C1095   1.396       .  A
C1094      H1099   1.083       .  S
C1095      O1100   1.371       .  S
C1096      C1097   1.404   1_556  A
C1097      C1098   1.398       .  A
C1097      H1101   1.083       .  S
C1098      O1102   1.370       .  S
O1100      H1104   0.992       .  S
O1102      H1103   0.992       .  S
C1105      C1110   1.412       .  A
C1106      C1107   1.401       .  A
C1106      H1111   1.083       .  S
C1107      O1112   1.373       .  S
C1108      C1109   1.408   1_554  A
C1109      C1110   1.397       .  A
C1109      H1113   1.083       .  S
C1110      O1114   1.372       .  S
O1112      H1116   0.992       .  S
O1114      H1115   0.992       .  S
C1117      C1118   1.401       .  A
C1117      C1122   1.409       .  A
C1118      C1119   1.399       .  A
C1118      H1123   1.084       .  S
C1119      C1120   1.416       .  A
C1119      O1124   1.371       .  S
C1120      C1121   1.405       .  A
C1121      C1122   1.395       .  A
C1121      H1125   1.083       .  S
C1122      O1126   1.373       .  S
O1124      H1128   0.992       .  S
O1126      H1127   0.992       .  S
C1129      C1130   1.406       .  A
C1129      C1134   1.414       .  A
C1130      C1131   1.401       .  A
C1130      H1135   1.083       .  S
C1131      C1132   1.408       .  A
C1131      O1136   1.372       .  S
C1132      C1133   1.400       .  A
C1133      C1134   1.391       .  A
C1133      H1137   1.084       .  S
C1134      O1138   1.372       .  S
O1136      H1140   0.992       .  S
O1138      H1139   0.992       .  S
C1141      C1142   1.405       .  A
C1141      C1146   1.413       .  A
C1142      C1143   1.405       .  A
C1142      H1147   1.083       .  S
C1143      C1144   1.415       .  A
C1143      O1148   1.371       .  S
C1144      C1145   1.406       .  A
C1145      C1146   1.396       .  A
C1145      H1149   1.082       .  S
C1146      O1150   1.373       .  S
O1148      H1152   0.992       .  S
O1150      H1151   0.992       .  S
C1153      C1154   1.406       .  A
C1153      C1158   1.411       .  A
C1154      C1155   1.401       .  A
C1154      H1159   1.083       .  S
C1155      C1156   1.407       .  A
C1155      O1160   1.371       .  S
C1156      C1157   1.401       .  A
C1157      C1158   1.393       .  A
C1157      H1161   1.084       .  S
C1158      O1162   1.373       .  S
O1160      H1164   0.992       .  S
O1162      H1163   0.992       .  S
C1165      C1166   1.404   1_554  A
C1166      C1167   1.401       .  A
C1166      H1171   1.084       .  S
C1167      C1168   1.413       .  A
C1167      O1172   1.372       .  S
C1169      C1170   1.400       .  A
C1169      H1173   1.083       .  S
C1170      O1174   1.371       .  S
O1172      H1176   0.992       .  S
O1174      H1175   0.992       .  S
C1177      C1178   1.402   1_565  A
C1177      C1182   1.409       .  A
C1178      C1179   1.394   1_545  A
C1178      H1183   1.084       .  S
C1179      C1180   1.414       .  A
C1179      O1184   1.373   1_565  S
C1180      C1181   1.406       .  A
C1181      C1182   1.402       .  A
C1181      H1185   1.083       .  S
C1182      O1186   1.371       .  S
O1184      H1188   0.992       .  S
O1186      H1187   0.992       .  S
C1189      C1190   1.404       .  A
C1189      C1194   1.413       .  A
C1190      C1191   1.397   1_565  A
C1190      H1195   1.083   1_565  S
C1191      C1192   1.408   1_545  A
C1191      O1196   1.373       .  S
C1192      C1193   1.404       .  A
C1193      C1194   1.404       .  A
C1193      H1197   1.084       .  S
C1194      O1198   1.372       .  S
O1196      H1200   0.992       .  S
O1198      H1199   0.992       .  S
C1201      C1202   1.407       .  A
C1202      C1203   1.400       .  A
C1202      H1207   1.083       .  S
C1203      C1204   1.411       .  A
C1203      O1208   1.372       .  S
C1205      C1206   1.397       .  A
C1205      H1209   1.083       .  S
C1206      O1210   1.371       .  S
O1208      H1212   0.992       .  S
O1210      H1211   0.992       .  S
C1213      C1214   1.407       .  A
C1213      C1218   1.412       .  A
C1214      C1215   1.405       .  A
C1214      H1219   1.083       .  S
C1215      C1216   1.409       .  A
C1215      O1220   1.371       .  S
C1216      C1217   1.403       .  A
C1217      C1218   1.393       .  A
C1217      H1221   1.084       .  S
C1218      O1222   1.372       .  S
O1220      H1224   0.992       .  S
O1222      H1223   0.992       .  S
C1225      C1226   1.407       .  A
C1225      C1230   1.409       .  A
C1226      C1227   1.405       .  A
C1226      H1231   1.083       .  S
C1227      C1228   1.412       .  A
C1227      O1232   1.371       .  S
C1228      C1229   1.407       .  A
C1229      C1230   1.391       .  A
C1229      H1233   1.082       .  S
C1230      O1234   1.372       .  S
O1232      H1236   0.992       .  S
O1234      H1235   0.992       .  S
