geometry optimzed in LAMMPS
_audit_creation_date              2020-11-30 
_audit_creation_method            'lammps2cif' 
_symmetry_space_group_name_H-M    'P1' 
_symmetry_Int_Tables_number       1 
_symmetry_cell_setting            triclinic 
loop_ 
_symmetry_equiv_pos_as_xyz 
  x,y,z 
_cell_length_a                    40.70734724708782 
_cell_length_b                    48.25719466565365 
_cell_length_c                    43.122075901366365 
_cell_angle_alpha                 90.81170902784704 
_cell_angle_beta                  95.57596224088562 
_cell_angle_gamma                 88.8155028409989 
loop_ 
_atom_site_label 
_atom_site_type_symbol 
_atom_site_fract_x 
_atom_site_fract_y 
_atom_site_fract_z 
_atom_site_charge 
C1          C  0.38070539  0.36972194  0.35007068    -0.01750
C2          C  0.10451071  0.15131301  0.09470967    -0.01750
C3          C  0.06943005  0.42586164  0.44092412     0.43190
N4          N  0.03456627  0.46123282  0.44060727     0.02080
C5          C  0.02857316  0.04109078  0.07213952    -0.05790
H6          H  0.45431410  0.45155450  0.07346465     0.07580
C7          C  0.37990270  0.51551222  0.48970513    -0.06140
Co8        Co  0.04383920  0.48196684  0.50469200     0.74180
N9          N  0.48691209  0.46888350  0.04228903    -0.25320
Co10       Co  0.47171189  0.51093916  0.03486509     0.74070
C11         C  0.37090566  0.50447712  0.51969701     0.43300
N12         N  0.44256014  0.50359977  0.42769363     0.01700
N13         N  0.42417978  0.50140996  0.01691591     0.01800
N14         N  0.07320160  0.02339452  0.05092561    -0.46170
H15         H  0.06945716  0.42176449  0.49344256     0.07560
N16         N  0.01399973  0.45877320  0.03118295     0.02090
N17         N  0.45569571  0.05349831  0.02624610     0.01830
C18         C  0.42839289  0.09300855  0.02482620     0.43430
N19         N  0.46891241  0.49201254  0.41670623    -0.24780
C20         C  0.10899507  0.00183368  0.47295146    -0.05700
N21         N  0.05301228  0.44572242  0.42273340    -0.45880
N22         N  0.43920390  0.07120806  0.04353409    -0.46110
C23         C  0.11494190  0.01283552  0.44177228     0.43210
N24         N  0.04600344  0.01115731  0.03970867     0.02080
N25         N  0.50224659  0.04483917  0.42329540    -0.24800
N26         N  0.03983358  0.45317239  0.46972532    -0.25290
N27         N  0.47593568  0.05608271  0.43438429     0.01720
H28         H  0.53621058  0.06012678  0.39222010     0.07610
H29         H  0.43470700  0.09773939  0.47323572     0.07640
N30         N  0.01935345  0.02153772  0.05128487    -0.25340
N31         N  0.41325224  0.51270922  0.49002314    -0.24950
N32         N  0.06282191  0.01509465  0.44924495     0.02080
C33         C  0.99860223  0.42540376  0.05892413     0.43480
C34         C  0.45919891  0.47141457  0.39748923    -0.06210
N35         N  0.45343394  0.06184645  0.49722183    -0.24950
H36         H  0.36433021  0.52702829  0.47250364     0.07630
N37         N  0.02174773  0.43324839  0.04070444    -0.46180
H38         H  0.47541190  0.45753426  0.38605899     0.07610
C39         C  0.49341902  0.08817166  0.40604108     0.43310
C40         C  0.05841897  0.43007068  0.47169441    -0.05700
Co41       Co  0.01662524  0.00338148  0.43201296     0.73820
N42         N  0.41496737  0.49120590  0.41783913    -0.45890
C43         C  0.06406868  0.04287614  0.07100793     0.43580
N44         N  0.08468088  0.02090944  0.42964777    -0.45880
Co45       Co  0.44637096  0.03353222  0.46180126     0.73890
C46         C  0.44100592  0.08741412  0.49504388    -0.06210
C47         C  0.47527650  0.44911000  0.06001684    -0.05770
N48         N  0.07584394  0.00393657  0.47551348    -0.25300
N49         N  0.40019952  0.49667780  0.03492209    -0.46060
H50         H  0.51201380  0.05474402  0.08363038     0.07590
C51         C  0.51513119  0.06362538  0.40529459    -0.06190
Cl52       Cl  0.49458836  0.00733094  0.48335044    -0.49190
C53         C  0.42365789  0.47093119  0.39859921     0.43340
H54         H  0.12639800  0.99060453  0.48863263     0.07550
N55         N  0.46947567  0.08168663  0.42419115    -0.45900
C56         C  0.35054589  0.29038182  0.04669096     0.43190
N57         N  0.32943324  0.27661943  0.50050460     0.02080
C58         C  0.17162497  0.32533781  0.44341783    -0.05790
H59         H  0.18652447  0.31565065  0.05734851     0.07580
C60         C  0.22022355  0.21278686  0.04215364    -0.06140
Co61       Co  0.27071291  0.31397399  0.47823023     0.74180
N62         N  0.22047109  0.30941305  0.02235621    -0.25320
Co63       Co  0.20118123  0.28099634  0.48773615     0.74070
C64         C  0.19592515  0.22793767  0.05886522     0.43300
N65         N  0.28684889  0.20434990  0.50247276     0.01700
N66         N  0.20533404  0.25096426  0.01971608     0.01800
N67         N  0.21608787  0.35175529  0.44039659    -0.46170
H68         H  0.31698323  0.32936855  0.04280893     0.07560
N69         N  0.24852625  0.32105892  0.01820475     0.02090
N70         N  0.18393838  0.25307746  0.45272581     0.01830
C71         C  0.16136756  0.23613088  0.40947659     0.43430
N72         N  0.31366093  0.21745909  0.49713207    -0.24780
C73         C  0.28098437  0.31559927  0.41083424    -0.05700
N74         N  0.35044502  0.26970212  0.02494060    -0.45880
N75         N  0.16178169  0.25853596  0.42875576    -0.46110
C76         C  0.29346703  0.29747092  0.38710220     0.43210
N77         N  0.22488051  0.32731257  0.45322132     0.02080
N78         N  0.29090681  0.22012444  0.43063788    -0.24800
N79         N  0.31438807  0.30062900  0.50489048    -0.25290
N80         N  0.26372176  0.20765232  0.43629414     0.01720
H81         H  0.32168312  0.21542611  0.39241439     0.07610
H82         H  0.19388786  0.19715973  0.41387226     0.07640
N83         N  0.19882474  0.31234099  0.45618145    -0.25340
N84         N  0.22200881  0.22760444  0.51678259    -0.24950
N85         N  0.30482461  0.27982803  0.43253234     0.02080
C86         C  0.23512479  0.34064381  0.06049445     0.43480
C87         C  0.34007738  0.20368805  0.51042341    -0.06210
N88         N  0.19907677  0.22888268  0.44958668    -0.24950
H89         H  0.22910574  0.19159452  0.04502381     0.07630
N90         N  0.25776785  0.33938498  0.03988142    -0.46180
H91         H  0.36525114  0.20777706  0.50634304     0.07610
C92         C  0.27405023  0.18994167  0.39212452     0.43310
C93         C  0.32670140  0.31103640  0.03257910    -0.05700
Co94       Co  0.31117342  0.24901824  0.46492225     0.73820
N95         N  0.29391478  0.18102547  0.51809075    -0.45890
C96         C  0.18267483  0.35156883  0.43251474     0.43580
N97         N  0.30733437  0.27544741  0.40265449    -0.45880
Co98       Co  0.24206849  0.21644739  0.47680052     0.73890
C99         C  0.18576553  0.21657778  0.42347733    -0.06210
C100        C  0.20971606  0.32041799  0.04869438    -0.05770
N101        N  0.28959015  0.30349948  0.43777419    -0.25300
N102        N  0.19016180  0.25235141  0.04509660    -0.46060
H103        H  0.14667343  0.31930941  0.44622813     0.07590
C104        C  0.29990617  0.20987838  0.40317168    -0.06190
Cl105      Cl  0.25632917  0.26512009  0.47689232    -0.49190
C106        C  0.32726787  0.17964350  0.02513039     0.43340
H107        H  0.26618779  0.33437971  0.40818921     0.07550
N108        N  0.25323958  0.18954053  0.41442581    -0.45900
C109        C  0.11047641  0.23070667  0.27781806     0.43190
N110        N  0.06819783  0.22162974  0.24480070     0.02080
C111        C  0.48200127  0.32772130  0.16199975    -0.05790
H112        H  0.02444579  0.36161301  0.25302084     0.07580
C113        C  0.48032569  0.27117293  0.31554571    -0.06140
Co114      Co  0.05036418  0.27004556  0.20164933     0.74180
N115        N  0.03405134  0.31922314  0.23969973    -0.25320
Co116      Co  0.48628570  0.30365115  0.22886268     0.74070
C117        C  0.48664942  0.29955793  0.32512556     0.43300
N118        N  0.48608677  0.21311138  0.28776106     0.01700
N119        N  0.48151844  0.29646209  0.27508668     0.01800
N120        N  0.02687806  0.30687080  0.14429963    -0.46170
H121        H  0.11686817  0.27245429  0.25307923     0.07560
N122        N  0.05981980  0.30670278  0.22891379     0.02090
N123        N  0.43953822  0.28899774  0.21509477     0.01830
C124        C  0.39916541  0.28019201  0.18007264     0.43430
N125        N  0.51268864  0.20093249  0.27845625    -0.24780
C126        C  0.02827484  0.23336111  0.14325251    -0.05700
N127        N  0.08618119  0.21267649  0.26989434    -0.45880
N128        N  0.42228178  0.29869415  0.18983931    -0.46110
C129        C  0.01037459  0.20716036  0.13776399     0.43210
N130        N  0.02006413  0.29602666  0.17114889     0.02080
N131        N  0.47383018  0.19035441  0.22106207    -0.24800
N132        N  0.07870088  0.24534490  0.23484472    -0.25290
N133        N  0.44787335  0.20417538  0.22917916     0.01720
H134        H  0.48310434  0.14789678  0.21112920     0.07610
H135        H  0.39236198  0.23727905  0.20112349     0.07640
N136        N  0.49454369  0.30857479  0.18228879    -0.25340
N137        N  0.47328408  0.27206051  0.28468305    -0.24950
N138        N  0.02491774  0.21268398  0.18645437     0.02080
C139        C  0.07609735  0.34891573  0.24016129     0.43480
C140        C  0.02322178  0.18116187  0.29896807    -0.06210
N141        N  0.42950525  0.26451974  0.22325920    -0.24950
H142        H  0.47568227  0.25394711  0.33011971     0.07630
N143        N  0.08500025  0.32393595  0.22796934    -0.46180
H144        H  0.04147711  0.16524584  0.29516154     0.07610
C145        C  0.42983935  0.16222598  0.21983049     0.43310
C146        C  0.10530783  0.25264691  0.25405943    -0.05700
Co147      Co  0.02148631  0.20622031  0.23213481     0.73820
N148        N  0.47686224  0.20199245  0.31353198    -0.45890
C149        C  0.00326509  0.32661188  0.13662374     0.43580
N150        N  0.00922198  0.19624092  0.16580691    -0.45880
Co151      Co  0.45766527  0.23939048  0.25648649     0.73890
C152        C  0.40393165  0.25729601  0.20245906    -0.06210
C153        C  0.04200027  0.34552962  0.24765105    -0.05770
N154        N  0.03594183  0.23519449  0.17425857    -0.25300
N155        N  0.49106996  0.31309907  0.29860308    -0.46060
H156        H  0.46319551  0.34303603  0.16641283     0.07590
C157        C  0.46513660  0.16403313  0.21447269    -0.06190
Cl158      Cl  0.50404752  0.25485921  0.22977972    -0.49190
C159        C  0.49965316  0.18214941  0.32261984     0.43340
H160        H  0.03215775  0.24942292  0.12687354     0.07550
N161        N  0.42174024  0.18822589  0.22941255    -0.45900
C162        C  0.20038888  0.49485443  0.34080790     0.43190
N163        N  0.23338291  0.50336553  0.30499856     0.02080
C164        C  0.18535067  0.06314424  0.16422943    -0.05790
H165        H  0.16040516  0.44931674  0.17309474     0.07580
C166        C  0.27660834  0.43703541  0.17645793    -0.06140
Co167      Co  0.19264237  0.02858954  0.25144880     0.74180
N168        N  0.17504875  0.48529477  0.20120812    -0.25320
Co169      Co  0.21158914  0.50358372  0.17678842     0.74070
C170        C  0.24797361  0.42355926  0.15998827     0.43300
N171        N  0.29935459  0.47290790  0.24381768     0.01700
N172        N  0.23478379  0.46528937  0.17280289     0.01800
N173        N  0.17160078  0.07661654  0.21201537    -0.46170
H174        H  0.15511106  0.50596197  0.30741671     0.07560
N175        N  0.16816698  0.49380236  0.22923973     0.02090
N176        N  0.25017880  0.02014124  0.15180356     0.01830
C177        C  0.28189506  0.02790816  0.11471396     0.43430
N178        N  0.29165042  0.48052483  0.27166989    -0.24780
C179        C  0.21307771  0.08853860  0.28555463    -0.05700
N180        N  0.23288190  0.49729068  0.33528890    -0.45880
N181        N  0.24994527  0.02451917  0.12118195    -0.46110
C182        C  0.24442154  0.09878759  0.30290297     0.43210
N183        N  0.18303669  0.05093565  0.21179010     0.02080
N184        N  0.30976581  0.03740977  0.25620896    -0.24800
N185        N  0.20316170  0.50657861  0.29148817    -0.25290
N186        N  0.31635540  0.02930757  0.22803444     0.01720
H187        H  0.32736719  0.07174351  0.28561627     0.07610
H188        H  0.32821940  0.01929190  0.14757692     0.07640
N189        N  0.19087012  0.04234996  0.18410263    -0.25340
N190        N  0.26607350  0.46271595  0.18337792    -0.24950
N191        N  0.25122276  0.05738921  0.28450465     0.02080
C192        C  0.14057693  0.45579091  0.22070233     0.43480
C193        C  0.29416244  0.45839638  0.28973561    -0.06210
N194        N  0.28070167  0.01841619  0.16509952    -0.24950
H195        H  0.30149782  0.42901499  0.18155308     0.07630
N196        N  0.14829237  0.47638533  0.24188889    -0.46180
H197        H  0.28777545  0.45838747  0.31333078     0.07610
C198        C  0.34674763  0.06513180  0.23776524     0.43310
C199        C  0.18127061  0.50135313  0.31153966    -0.05700
Co200      Co  0.27252720  0.01925249  0.28000885     0.73820
N201        N  0.30666194  0.44645237  0.24158786    -0.45890
C202        C  0.17253123  0.08533158  0.18291970     0.43580
N203        N  0.26595807  0.07774468  0.30052044    -0.45880
Co204      Co  0.29145916  0.49618628  0.20541734     0.73890
C205        C  0.30194104  0.02353391  0.14412165    -0.06210
C206        C  0.15842993  0.46183240  0.19383455    -0.05770
N207        N  0.22001389  0.06251433  0.27487042    -0.25300
N208        N  0.22313125  0.44268231  0.15819123    -0.46060
H209        H  0.19054379  0.06295293  0.14012232     0.07590
C210        C  0.32800423  0.05983273  0.26431114    -0.06190
Cl211      Cl  0.24199577  0.51212434  0.22836042    -0.49190
C212        C  0.30370662  0.43572363  0.26936852     0.43340
H213        H  0.18887405  0.09828576  0.28313805     0.07550
N214        N  0.33816697  0.04526103  0.21621832    -0.45900
C215        C  0.36765839  0.08972703  0.23251952    -0.04600
C216        C  0.35570366  0.11703727  0.23676402    -0.01720
C217        C  0.37535598  0.14024268  0.23163823     0.03270
C218        C  0.40829207  0.13682003  0.22299975    -0.04600
C219        C  0.41988088  0.10895581  0.21854188    -0.01710
C220        C  0.39954882  0.08592697  0.22284644     0.03270
C221        C  0.32238695  0.12146101  0.24544992     0.37920
C222        C  0.45279039  0.10279119  0.21002716     0.37910
C223        C  0.41198954  0.05787821  0.21820075     0.36330
C224        C  0.36079588  0.16764858  0.23538323     0.36330
N225        N  0.42184119  0.03552634  0.21448309    -0.38490
N226        N  0.34886583  0.18936447  0.23853326    -0.38490
N227        N  0.47879225  0.09626394  0.20348051    -0.37930
N228        N  0.29584547  0.12510427  0.25233883    -0.37940
C229        C  0.09267948  0.37638644  0.23514473    -0.04600
C230        C  0.07778101  0.39633220  0.21396512    -0.01720
C231        C  0.09346327  0.42189093  0.20914397     0.03270
C232        C  0.12350463  0.42892202  0.22655790    -0.04600
C233        C  0.13800757  0.40941403  0.24824297    -0.01710
C234        C  0.12298091  0.38339117  0.25220788     0.03270
C235        C  0.04601225  0.39080630  0.19708712     0.37920
C236        C  0.16904100  0.41585906  0.26604552     0.37910
C237        C  0.13849360  0.36416034  0.27473158     0.36330
C238        C  0.07840990  0.44120420  0.18626302     0.36330
N239        N  0.15132600  0.34919745  0.29299381    -0.38490
N240        N  0.06648801  0.45659657  0.16792814    -0.38490
N241        N  0.19377282  0.42110718  0.28025992    -0.37930
N242        N  0.02043214  0.38673913  0.18383692    -0.37940
C243        C  0.24797308  0.39904320  0.13862499    -0.04600
C244        C  0.27041794  0.39747854  0.11583171    -0.01720
C245        C  0.26303093  0.38134259  0.08883181     0.03270
C246        C  0.23825025  0.36075395  0.08769294    -0.04600
C247        C  0.21889230  0.35935178  0.11328211    -0.01710
C248        C  0.22254590  0.37947488  0.13767391     0.03270
C249        C  0.30095325  0.41276930  0.11938335     0.37920
C250        C  0.19524835  0.33760020  0.11503510     0.37910
C251        C  0.20113809  0.37932006  0.16268738     0.36330
C252        C  0.27924835  0.38837052  0.06149946     0.36330
N253        N  0.18424409  0.37914039  0.18277875    -0.38490
N254        N  0.29177736  0.39420409  0.03958290    -0.38490
N255        N  0.17628474  0.32036955  0.11720828    -0.37930
N256        N  0.32551493  0.42463953  0.12196559    -0.37940
C257        C  0.25357973  0.12410821  0.32346033    -0.04600
C258        C  0.28350683  0.12398225  0.34423738    -0.01720
C259        C  0.29208718  0.14699212  0.36401281     0.03270
C260        C  0.27077352  0.17011826  0.36485598    -0.04600
C261        C  0.24266173  0.17146755  0.34290929    -0.01710
C262        C  0.23412007  0.14887320  0.32227467     0.03270
C263        C  0.30571515  0.10001552  0.34691323     0.37920
C264        C  0.22377232  0.19715386  0.34034534     0.37910
C265        C  0.20579635  0.15179477  0.29942052     0.36330
C266        C  0.32295576  0.14670733  0.38397342     0.36330
N267        N  0.18323232  0.15464223  0.28116119    -0.38490
N268        N  0.34780018  0.14650487  0.39950551    -0.38490
N269        N  0.20967182  0.21814698  0.33789436    -0.37930
N270        N  0.32374549  0.08114042  0.34956379    -0.37940
C271        C  0.14841476  0.23536012  0.37584608    -0.04600
C272        C  0.13554693  0.21043149  0.36267316    -0.01720
C273        C  0.12559344  0.20835401  0.33045418     0.03270
C274        C  0.12771920  0.23145228  0.31057374    -0.04600
C275        C  0.14459314  0.25509513  0.32326059    -0.01710
C276        C  0.15407027  0.25733673  0.35575376     0.03270
C277        C  0.13326851  0.18635145  0.38219598     0.37920
C278        C  0.15657931  0.27533050  0.30289018     0.37910
C279        C  0.17325463  0.28085426  0.36776646     0.36330
C280        C  0.11546310  0.18146281  0.31782921     0.36330
N281        N  0.18914830  0.29935914  0.37703114    -0.38490
N282        N  0.10786791  0.15979766  0.30812672    -0.38490
N283        N  0.16754755  0.29106312  0.28692312    -0.37930
N284        N  0.13155237  0.16713370  0.39768308    -0.37940
C285        C  0.38339134  0.28067499  0.14696941    -0.04600
C286        C  0.38978714  0.25951807  0.12520837    -0.01720
C287        C  0.38011641  0.26287668  0.09277843     0.03270
C288        C  0.36336552  0.28748319  0.08119328    -0.04600
C289        C  0.35900783  0.30922834  0.10332211    -0.01710
C290        C  0.36766429  0.30535883  0.13566629     0.03270
C291        C  0.40846558  0.23489068  0.13578490     0.37920
C292        C  0.35074727  0.33723746  0.09335442     0.37910
C293        C  0.36133627  0.32757923  0.15756310     0.36330
C294        C  0.39092291  0.24185483  0.07151449     0.36330
N295        N  0.35630748  0.34528164  0.17497083    -0.38490
N296        N  0.40092347  0.22497332  0.05539168    -0.38490
N297        N  0.34547918  0.36008776  0.08641320    -0.37930
N298        N  0.42345549  0.21525437  0.14403290    -0.37940
C299        C  0.39755145  0.11094869  0.02746796    -0.04600
C300        C  0.37395073  0.11547660  0.50103966    -0.01720
C301        C  0.34863485  0.13588655  0.50195288     0.03270
C302        C  0.34703510  0.15314401  0.02830198    -0.04600
C303        C  0.36809339  0.14712908  0.05549656    -0.01710
C304        C  0.39223164  0.12534961  0.05538858     0.03270
C305        C  0.37414754  0.09881457  0.47271554     0.37920
C306        C  0.36503338  0.16354366  0.08348167     0.37910
C307        C  0.41101310  0.11727061  0.08406648     0.36330
C308        C  0.32423907  0.13953645  0.47533620     0.36330
N309        N  0.42526614  0.10977684  0.10699963    -0.38490
N310        N  0.30432020  0.14231207  0.45452109    -0.38490
N311        N  0.36245517  0.17667908  0.10580674    -0.37930
N312        N  0.37368977  0.08567637  0.44999492    -0.37940
C313        C  0.15943170  0.37636763  0.43014425    -0.04600
C314        C  0.13349539  0.37794012  0.40573789    -0.01720
C315        C  0.10581206  0.39621064  0.40781236     0.03270
C316        C  0.10238754  0.41195920  0.43525480    -0.04600
C317        C  0.13001503  0.41210334  0.45854285    -0.01710
C318        C  0.15813825  0.39463315  0.45579751     0.03270
C319        C  0.13435240  0.35947626  0.37908913     0.37920
C320        C  0.12999799  0.42934538  0.48633412     0.37910
C321        C  0.18468143  0.39382840  0.48090376     0.36330
C322        C  0.08013737  0.39784237  0.38213516     0.36330
N323        N  0.20571495  0.39318146  0.50099213    -0.38490
N324        N  0.05981588  0.39939536  0.36148119    -0.38490
N325        N  0.13066497  0.44201678  0.50937119    -0.37930
N326        N  0.13471208  0.34454254  0.35791392    -0.37940
C327        C  0.14045160  0.00341693  0.41973540    -0.04600
C328        C  0.13034477  0.98803891  0.39211190    -0.01720
C329        C  0.15278430  0.48098977  0.37002979     0.03270
C330        C  0.18417738  0.49329859  0.37124292    -0.04600
C331        C  0.19496939  0.00825239  0.39886751    -0.01710
C332        C  0.17369314  0.01233505  0.42338001     0.03270
C333        C  0.09585508  0.98217869  0.38344565     0.37920
C334        C  0.22720771  0.02061623  0.40150556     0.37910
C335        C  0.18517453  0.02769638  0.45127120     0.36330
C336        C  0.14262073  0.46157873  0.34497978     0.36330
N337        N  0.19433148  0.03993986  0.47361212    -0.38490
N338        N  0.13421244  0.44612417  0.32516046    -0.38490
N339        N  0.25298748  0.03053070  0.40361082    -0.37930
N340        N  0.06851701  0.97859935  0.37452431    -0.37940
C341        C  0.34044162  0.50983979  0.03726090    -0.04600
C342        C  0.32662620  0.03678448  0.04084873    -0.01720
C343        C  0.30762366  0.04328929  0.06614059     0.03270
C344        C  0.29581178  0.02197319  0.08388306    -0.04600
C345        C  0.30238738  0.49442369  0.07460439    -0.01710
C346        C  0.32682831  0.48832507  0.05379019     0.03270
C347        C  0.32555003  0.05595544  0.01558251     0.37920
C348        C  0.28091718  0.47321893  0.08372548     0.37910
C349        C  0.33717431  0.45990745  0.04864245     0.36330
C350        C  0.29956859  0.07189593  0.07330197     0.36330
N351        N  0.34585766  0.43729442  0.04447960    -0.38490
N352        N  0.29333797  0.09477976  0.07910977    -0.38490
N353        N  0.26145858  0.45762100  0.08990696    -0.37930
N354        N  0.32091917  0.07066641  0.99466779    -0.37940
C355        C  0.00445234  0.34922727  0.11307579    -0.04600
C356        C  0.47544466  0.35661318  0.09406715    -0.01720
C357        C  0.47330208  0.38144694  0.07674666     0.03270
C358        C  0.00071050  0.39900057  0.07732075    -0.04600
C359        C  0.03073184  0.39050314  0.09447128    -0.01710
C360        C  0.03258475  0.36578965  0.11217023     0.03270
C361        C  0.44849884  0.33744575  0.09080754     0.37920
C362        C  0.05952838  0.40778264  0.09512989     0.37910
C363        C  0.06324549  0.35794841  0.13016097     0.36330
C364        C  0.44312328  0.38839673  0.05750389     0.36330
N365        N  0.08775858  0.35172829  0.14447203    -0.38490
N366        N  0.41903465  0.39386102  0.04210963    -0.38490
N367        N  0.08254615  0.42153225  0.09569351    -0.37930
N368        N  0.42772003  0.32142293  0.08777067    -0.37940
C369        C  0.49556792  0.16003974  0.34610516    -0.04600
C370        C  0.46856140  0.14188575  0.34266381    -0.01720
C371        C  0.46728343  0.11901951  0.36287660     0.03270
C372        C  0.49338691  0.11361152  0.38631632    -0.04600
C373        C  0.51938848  0.13269817  0.39082782    -0.01710
C374        C  0.51987461  0.15613400  0.37137626     0.03270
C375        C  0.44210673  0.14657054  0.31821241     0.37920
C376        C  0.04517658  0.12868174  0.41608743     0.37910
C377        C  0.04355128  0.17775554  0.37884593     0.36330
C378        C  0.43941755  0.10062101  0.35899175     0.36330
N379        N  0.06115492  0.19594908  0.38496932    -0.38490
N380        N  0.41711722  0.08600041  0.35601001    -0.38490
N381        N  0.06574457  0.12549687  0.43627847    -0.37930
N382        N  0.42076692  0.15039018  0.29891739    -0.37940
C383        C  0.15911152  0.11148748  0.17132388    -0.04600
C384        C  0.17771601  0.12706819  0.15297896    -0.01720
C385        C  0.16132934  0.14456538  0.13063957     0.03270
C386        C  0.12540937  0.14669307  0.12764957    -0.04600
C387        C  0.11072606  0.13882582  0.15467845    -0.01710
C388        C  0.12647038  0.11913449  0.17478413     0.03270
C389        C  0.21347592  0.12287949  0.15520567     0.37920
C390        C  0.08474795  0.15468430  0.16700011     0.37910
C391        C  0.10906434  0.10689898  0.19890810     0.36330
C392        C  0.18287012  0.15672206  0.10981882     0.35830
N393        N  0.09524174  0.09731809  0.21825435    -0.38490
N394        N  0.20227935  0.16485327  0.09445394    -0.38490
N395        N  0.06511186  0.16599785  0.18027333    -0.37930
N396        N  0.24181800  0.11947798  0.15681720    -0.37940
C397        C  0.06734705  0.16221469  0.09461334    -0.04600
C398        C  0.05382756  0.18658636  0.07750085    -0.01720
C399        C  0.02423952  0.19900443  0.08523260     0.03270
C400        C  0.00999182  0.18876176  0.11023061    -0.04600
C401        C  0.01380313  0.16019708  0.11567743    -0.01710
C402        C  0.04326278  0.14673437  0.10870387     0.03270
C403        C  0.06782495  0.19931770  0.05153690     0.37920
C404        C  0.99085435  0.14654373  0.13369178     0.37910
C405        C  0.04890935  0.11826501  0.11859276     0.36330
C406        C  0.01043046  0.22416671  0.07069678     0.36330
N407        N  0.05251327  0.09586066  0.12771485    -0.38490
N408        N  0.99930046  0.24423210  0.05923144    -0.38490
N409        N  0.97289050  0.13584744  0.14866018    -0.37930
N410        N  0.07756451  0.21026609  0.03062758    -0.37940
C411        C  0.16658837  0.21333637  0.06400231    -0.04600
C412        C  0.15386819  0.19372199  0.04173109    -0.01720
C413        C  0.13658519  0.17169410  0.05144430     0.03270
C414        C  0.12293774  0.17421518  0.08057208    -0.04600
C415        C  0.12786717  0.19963565  0.09851185    -0.01710
C416        C  0.15180244  0.21793391  0.09123892     0.03270
C417        C  0.15858604  0.19541356  0.50892868     0.37920
C418        C  0.11153602  0.20601490  0.12629231     0.37910
C419        C  0.16246277  0.24043231  0.11238406     0.36330
C420        C  0.13626299  0.14704295  0.03165848     0.36330
N421        N  0.17100039  0.25815674  0.12944168    -0.38490
N422        N  0.13721299  0.12795088  0.01515595    -0.38490
N423        N  0.09975353  0.21233790  0.14874047    -0.37930
N424        N  0.16062283  0.19508588  0.48241052    -0.37940
C425        C  0.10360440  0.12297364  0.07643608    -0.04600
C426        C  0.07753494  0.11684284  0.05285754    -0.01720
C427        C  0.06625871  0.08973050  0.04949713     0.03270
C428        C  0.07945949  0.06952389  0.07064964    -0.04600
C429        C  0.10973377  0.07375076  0.08778675    -0.01710
C430        C  0.12377534  0.09984450  0.08715422     0.03270
C431        C  0.06291466  0.13721627  0.03102007     0.37920
C432        C  0.12736666  0.05061464  0.10332760     0.37910
C433        C  0.15898530  0.09992824  0.08509703     0.36330
C434        C  0.04228243  0.08245153  0.02362140     0.36330
N435        N  0.18702320  0.09867896  0.08251220    -0.38490
N436        N  0.52389493  0.07678525  0.00244892    -0.38490
N437        N  0.14049981  0.03146886  0.11514582    -0.37930
N438        N  0.05053639  0.15172352  0.01197967    -0.37940
C439        C  0.40447674  0.44618289  0.39405551    -0.04600
C440        C  0.41237346  0.42255998  0.41247197    -0.01720
C441        C  0.40007399  0.39674165  0.40166905     0.03270
C442        C  0.38183504  0.39564600  0.37209566    -0.04600
C443        C  0.36363907  0.42043332  0.36354318    -0.01710
C444        C  0.37747656  0.44585672  0.37164762     0.03270
C445        C  0.43462790  0.42455621  0.44079495     0.37920
C446        C  0.32904786  0.41984387  0.35233935     0.37910
C447        C  0.36460152  0.47104751  0.35653609     0.36330
C448        C  0.40734897  0.37231271  0.42025988     0.36330
N449        N  0.35450010  0.49110341  0.34431040    -0.38490
N450        N  0.41338433  0.35373522  0.43662897    -0.38490
N451        N  0.30087713  0.41863757  0.34571677    -0.37930
N452        N  0.95243176  0.42623643  0.46331432    -0.37940
C453        C  0.35808372  0.34866483  0.36428039    -0.04600
C454        C  0.32478301  0.35623399  0.36660208    -0.01720
C455        C  0.30061312  0.33733029  0.35607459     0.03270
C456        C  0.30859266  0.30917461  0.36080244    -0.04600
C457        C  0.34168956  0.30058870  0.35970139    -0.01710
C458        C  0.36626094  0.32007602  0.36718052     0.03270
C459        C  0.31736292  0.37427269  0.39220215     0.37920
C460        C  0.35025360  0.27137707  0.35695106     0.37910
C461        C  0.39609390  0.31087581  0.38548217     0.36330
C462        C  0.26655204  0.34652511  0.34959638     0.36330
N463        N  0.41936822  0.30259464  0.40031688    -0.38490
N464        N  0.23937858  0.35395378  0.34446376    -0.38490
N465        N  0.35699684  0.24805063  0.35493063    -0.37930
N466        N  0.31146024  0.38833742  0.41299737    -0.37940
C467        C  0.32625705  0.41386167  0.27961565    -0.04600
C468        C  0.36009992  0.41964092  0.28448741    -0.01720
C469        C  0.38064817  0.40154744  0.30260590     0.03270
C470        C  0.36599861  0.37926269  0.31718076    -0.04600
C471        C  0.33635261  0.36884859  0.30143320    -0.01710
C472        C  0.31493728  0.38734313  0.28468485     0.03270
C473        C  0.37306927  0.44523569  0.27358232     0.37920
C474        C  0.33108162  0.33944549  0.29673181     0.37910
C475        C  0.28149533  0.37957755  0.27388068     0.36330
C476        C  0.41546038  0.40758803  0.30791168     0.36330
N477        N  0.25477400  0.37336319  0.26542354    -0.38490
N478        N  0.44310139  0.41316680  0.31029966    -0.38490
N479        N  0.32675230  0.31616132  0.29135970    -0.37930
N480        N  0.38330623  0.46561447  0.26487604    -0.37940
C481        C  0.41424331  0.35570121  0.34340060    -0.04600
C482        C  0.44602669  0.35884187  0.36027696    -0.01720
C483        C  0.46982981  0.33709206  0.35922221     0.03270
C484        C  0.46145789  0.31253092  0.34264159    -0.04600
C485        C  0.42888428  0.30988987  0.32843053    -0.01710
C486        C  0.41162793  0.33379789  0.32134842     0.03270
C487        C  0.45826454  0.38540550  0.37107839     0.37920
C488        C  0.41428769  0.28430803  0.31603182     0.37910
C489        C  0.40357605  0.33861093  0.28831079     0.36330
C490        C  0.50343456  0.34033452  0.37329318     0.36330
N491        N  0.39772889  0.34210547  0.26182349    -0.38490
N492        N  0.53023215  0.34278423  0.38450204    -0.38490
N493        N  0.40253412  0.26412951  0.30572785    -0.37930
N494        N  0.47064204  0.40597893  0.37905513    -0.37940
C495        C  0.38068345  0.36969808  0.85005991    -0.01750
C496        C  0.10453628  0.15132363  0.59471896    -0.01750
C497        C  0.06942229  0.42585151  0.94092092     0.43190
N498        N  0.03455827  0.46122232  0.94060281     0.02080
C499        C  0.02856909  0.04110567  0.57214877    -0.05790
H500        H  0.45431108  0.45155225  0.57346335     0.07580
C501        C  0.37990094  0.51550778  0.98970751    -0.06140
Co502      Co  0.04383838  0.48196009  0.00468552     0.74180
N503        N  0.48691104  0.46888568  0.54229240    -0.25320
Co504      Co  0.47170882  0.51094165  0.53487156     0.74070
C505        C  0.37090734  0.50447712  0.01970260     0.43300
N506        N  0.44254986  0.50358077  0.92769194     0.01700
N507        N  0.42417915  0.50141173  0.51691534     0.01800
N508        N  0.07320129  0.02341082  0.55093971    -0.46170
H509        H  0.06944934  0.42175578  0.99343939     0.07560
N510        N  0.01399991  0.45877580  0.53118492     0.02090
N511        N  0.45569248  0.05349964  0.52625988     0.01830
C512        C  0.42838405  0.09300684  0.52484444     0.43430
N513        N  0.46890117  0.49199263  0.91670352    -0.24780
C514        C  0.10898417  0.00182473  0.97293398    -0.05700
N515        N  0.05300419  0.44571148  0.92272947    -0.45880
N516        N  0.43919477  0.07120415  0.54354887    -0.46110
C517        C  0.11492922  0.01282317  0.94175305     0.43210
N518        N  0.04600591  0.01116818  0.53972517     0.02080
N519        N  0.50223193  0.04481820  0.92327515    -0.24800
N520        N  0.03982630  0.45316331  0.96972124    -0.25290
N521        N  0.47592306  0.05606416  0.93436516     0.01720
H522        H  0.53619564  0.06010234  0.89219724     0.07610
H523        H  0.43471090  0.09773153  0.97321489     0.07640
N524        N  0.01935366  0.02154721  0.55129891    -0.25340
N525        N  0.41325009  0.51270369  0.99002253    -0.24950
N526        N  0.06280870  0.01507627  0.94922357     0.02080
C527        C  0.99860236  0.42540309  0.55892188     0.43480
C528        C  0.45918737  0.47138829  0.89749572    -0.06210
N529        N  0.45343342  0.06184005  0.99720600    -0.24950
H530        H  0.36432683  0.52702192  0.97250546     0.07630
N531        N  0.02174942  0.43325089  0.54070541    -0.46180
H532        H  0.47540069  0.45750699  0.88606775     0.07610
C533        C  0.49340651  0.08815031  0.90601806     0.43310
C534        C  0.05841083  0.43006118  0.97169099    -0.05700
Co535      Co  0.01661016  0.00336179  0.93199747     0.73820
N536        N  0.41495740  0.49118147  0.91784692    -0.45890
C537        C  0.06406440  0.04289423  0.57101815     0.43580
N538        N  0.08466681  0.02089066  0.92962537    -0.45880
Co539      Co  0.44636234  0.03351979  0.96179185     0.73890
C540        C  0.44100919  0.08740878  0.99502447    -0.06210
C541        C  0.47527501  0.44910992  0.56001717    -0.05770
N542        N  0.07583260  0.00392308  0.97549434    -0.25300
N543        N  0.40019661  0.49667622  0.53491778    -0.46060
H544        H  0.51200612  0.05475436  0.58363362     0.07590
C545        C  0.51511648  0.06360250  0.90527170    -0.06190
Cl546      Cl  0.49458179  0.00732083  0.98334048    -0.49190
C547        C  0.42364738  0.47090267  0.89861159     0.43340
H548        H  0.12638933  0.99060077  0.98861826     0.07550
N549        N  0.46946461  0.08166796  0.92417088    -0.45900
C550        C  0.35054779  0.29038005  0.54668809     0.43190
N551        N  0.32943127  0.27662093  0.00050755     0.02080
C552        C  0.17162245  0.32533550  0.94342244    -0.05790
H553        H  0.18652525  0.31565158  0.55734188     0.07580
C554        C  0.22024215  0.21279412  0.54215248    -0.06140
Co555      Co  0.27071014  0.31397403  0.97823478     0.74180
N556        N  0.22047239  0.30941432  0.52235005    -0.25320
Co557      Co  0.20117899  0.28099498  0.98774248     0.74070
C558        C  0.19595005  0.22794618  0.55886993     0.43300
N559        N  0.28684954  0.20435037  0.00247925     0.01700
N560        N  0.20533910  0.25096631  0.51971004     0.01800
N561        N  0.21608486  0.35175338  0.94040048    -0.46170
H562        H  0.31698408  0.32936757  0.54280813     0.07560
N563        N  0.24852796  0.32105965  0.51819939     0.02090
N564        N  0.18393609  0.25307600  0.95273203     0.01830
C565        C  0.16136632  0.23613009  0.90948195     0.43430
N566        N  0.31366007  0.21746126  0.99713718    -0.24780
C567        C  0.28097297  0.31559789  0.91083768    -0.05700
N568        N  0.35044694  0.26970042  0.52493758    -0.45880
N569        N  0.16178017  0.25853491  0.92876146    -0.46110
C570        C  0.29344720  0.29746668  0.88710436     0.43210
N571        N  0.22487753  0.32731152  0.95322714     0.02080
N572        N  0.29090401  0.22012377  0.93064314    -0.24800
N573        N  0.31438618  0.30063031  0.00489333    -0.25290
N574        N  0.26371985  0.20765094  0.93630067     0.01720
H575        H  0.32167953  0.21542469  0.89241924     0.07610
H576        H  0.19388645  0.19715889  0.91387763     0.07640
N577        N  0.19882218  0.31233967  0.95618764    -0.25340
N578        N  0.22200308  0.22760184  0.01678918    -0.24950
N579        N  0.30481970  0.27982857  0.93253514     0.02080
C580        C  0.23512613  0.34064416  0.56048931     0.43480
C581        C  0.34007852  0.20369220  0.01042724    -0.06210
N582        N  0.19907437  0.22888107  0.94959312    -0.24950
H583        H  0.22913088  0.19160395  0.54502645     0.07630
N584        N  0.25776960  0.33938518  0.53987661    -0.46180
H585        H  0.36525134  0.20778312  0.00634515     0.07610
C586        C  0.27404770  0.18993911  0.89213106     0.43310
C587        C  0.32670311  0.31103431  0.53257649    -0.05700
Co588      Co  0.31117065  0.24901916  0.96492617     0.73820
N589        N  0.29391924  0.18102567  0.01809594    -0.45890
C590        C  0.18267218  0.35156598  0.93251770     0.43580
N591        N  0.30732208  0.27544572  0.90265637    -0.45880
Co592      Co  0.24206669  0.21644620  0.97680744     0.73890
C593        C  0.18576385  0.21657670  0.92348304    -0.06210
C594        C  0.20971702  0.32041904  0.54868819    -0.05770
N595        N  0.28958558  0.30350013  0.93777776    -0.25300
N596        N  0.19017928  0.25235756  0.54509771    -0.46060
H597        H  0.14667088  0.31930670  0.94623186     0.07590
C598        C  0.29990299  0.20987695  0.90317702    -0.06190
Cl599      Cl  0.25632680  0.26511955  0.97689814    -0.49190
C600        C  0.32726269  0.17964110  0.52512706     0.43340
H601        H  0.26617367  0.33437678  0.90819303     0.07550
N602        N  0.25323785  0.18953823  0.91443311    -0.45900
C603        C  0.11047360  0.23070647  0.77782292     0.43190
N604        N  0.06819675  0.22162953  0.74480324     0.02080
C605        C  0.48200440  0.32772073  0.66199953    -0.05790
H606        H  0.02444626  0.36161353  0.75302034     0.07580
C607        C  0.48033547  0.27116545  0.81554309    -0.06140
Co608      Co  0.05036537  0.27004548  0.70165096     0.74180
N609        N  0.03405171  0.31922327  0.73970074    -0.25320
Co610      Co  0.48628705  0.30364986  0.72886276     0.74070
C611        C  0.48665032  0.29955054  0.82512646     0.43300
N612        N  0.48608606  0.21310596  0.78775761     0.01700
N613        N  0.48151754  0.29645992  0.77508698     0.01800
N614        N  0.02688136  0.30687044  0.64429996    -0.46170
H615        H  0.11686656  0.27245432  0.75308504     0.07560
N616        N  0.05982034  0.30670252  0.72891552     0.02090
N617        N  0.43954004  0.28899702  0.71509366     0.01830
C618        C  0.39916763  0.28019233  0.68007054     0.43430
N619        N  0.51268836  0.20092777  0.77845303    -0.24780
C620        C  0.02828024  0.23335944  0.64325345    -0.05700
N621        N  0.08617862  0.21267632  0.76989785    -0.45880
N622        N  0.42228400  0.29869413  0.68983832    -0.46110
C623        C  0.01038090  0.20715810  0.63776476     0.43210
N624        N  0.02006665  0.29602694  0.67114937     0.02080
N625        N  0.47383103  0.19035323  0.72105735    -0.24800
N626        N  0.07870051  0.24534469  0.73484785    -0.25290
N627        N  0.44787434  0.20417439  0.72917439     0.01720
H628        H  0.48310354  0.14789620  0.71112024     0.07610
H629        H  0.39236354  0.23727895  0.70112026     0.07640
N630        N  0.49454644  0.30857409  0.68228875    -0.25340
N631        N  0.47328827  0.27205622  0.78468129    -0.24950
N632        N  0.02491831  0.21268445  0.68645543     0.02080
C633        C  0.07609805  0.34891551  0.74016197     0.43480
C634        C  0.02321623  0.18115764  0.79896422    -0.06210
N635        N  0.42950708  0.26451874  0.72325711    -0.24950
H636        H  0.47569728  0.25393715  0.83011547     0.07630
N637        N  0.08500103  0.32393540  0.72797107    -0.46180
H638        H  0.04147075  0.16524134  0.79515610     0.07610
C639        C  0.42983887  0.16222621  0.71982203     0.43310
C640        C  0.10530634  0.25264676  0.75406416    -0.05700
Co641      Co  0.02148531  0.20622053  0.73213465     0.73820
N642        N  0.47685905  0.20198383  0.81352590    -0.45890
C643        C  0.00326863  0.32661148  0.63662286     0.43580
N644        N  0.00922544  0.19623982  0.66580778    -0.45880
Co645      Co  0.45766682  0.23938775  0.75648361     0.73890
C646        C  0.40393349  0.25729579  0.70245650    -0.06210
C647        C  0.04200076  0.34552986  0.74765144    -0.05770
N648        N  0.03594383  0.23519437  0.67425979    -0.25300
N649        N  0.49106625  0.31309601  0.79860528    -0.46060
H650        H  0.46319852  0.34303543  0.66641230     0.07590
C651        C  0.46513644  0.16403268  0.71446520    -0.06190
Cl652      Cl  0.50404901  0.25485720  0.72977855    -0.49190
C653        C  0.49964890  0.18213939  0.82261239     0.43340
H654        H  0.03216543  0.24942021  0.62687389     0.07550
N655        N  0.42174049  0.18822567  0.72940583    -0.45900
C656        C  0.20039790  0.49484846  0.84080569     0.43190
N657        N  0.23339156  0.50336235  0.80499687     0.02080
C658        C  0.18535761  0.06314885  0.66422794    -0.05790
H659        H  0.16040796  0.44931483  0.67309354     0.07580
C660        C  0.27661263  0.43703386  0.67645489    -0.06140
Co661      Co  0.19264162  0.02859065  0.75144405     0.74180
N662        N  0.17505356  0.48529188  0.70120778    -0.25320
Co663      Co  0.21159232  0.50358149  0.67678702     0.74070
C664        C  0.24797759  0.42355722  0.65998604     0.43300
N665        N  0.29936341  0.47290787  0.74381329     0.01700
N666        N  0.23478785  0.46528753  0.67280050     0.01800
N667        N  0.17161178  0.07662062  0.71201533    -0.46170
H668        H  0.15511942  0.50595418  0.80741494     0.07560
N669        N  0.16817285  0.49379908  0.72923981     0.02090
N670        N  0.25017737  0.02014248  0.65179693     0.01830
C671        C  0.28189442  0.02790864  0.61470709     0.43430
N672        N  0.29165957  0.48052434  0.77166584    -0.24780
C673        C  0.21307428  0.08853942  0.78555360    -0.05700
N674        N  0.23289090  0.49728669  0.83528708    -0.45880
N675        N  0.24994446  0.02451969  0.62117514    -0.46110
C676        C  0.24441804  0.09878898  0.80290177     0.43210
N677        N  0.18303757  0.05093698  0.71178647     0.02080
N678        N  0.30976369  0.03741338  0.75620219    -0.24800
N679        N  0.20317006  0.50657421  0.79148679    -0.25290
N680        N  0.31635321  0.02931053  0.72802782     0.01720
H681        H  0.32736494  0.07174767  0.78560873     0.07610
H682        H  0.32821800  0.01929281  0.64757121     0.07640
N683        N  0.19086995  0.04235184  0.68409842    -0.25340
N684        N  0.26607790  0.46271452  0.68337468    -0.24950
N685        N  0.25122121  0.05739223  0.78449927     0.02080
C686        C  0.14058132  0.45578851  0.72070196     0.43480
C687        C  0.29417347  0.45839612  0.78973180    -0.06210
N688        N  0.28070006  0.01841761  0.66509319    -0.24950
H689        H  0.30150218  0.42901358  0.68154987     0.07630
N690        N  0.14829794  0.47638232  0.74188893    -0.46180
H691        H  0.28778801  0.45838732  0.81332743     0.07610
C692        C  0.34674507  0.06513482  0.73775760     0.43310
C693        C  0.18127932  0.50134680  0.81153782    -0.05700
Co694      Co  0.27252621  0.01925602  0.78000299     0.73820
N695        N  0.30667239  0.44645271  0.74158322    -0.45890
C696        C  0.17254666  0.08533820  0.68292150     0.43580
N697        N  0.26595580  0.07774743  0.80051623    -0.45880
Co698      Co  0.29146384  0.49618567  0.70541292     0.73890
C699        C  0.30193968  0.02353494  0.64411544    -0.06210
C700        C  0.15843393  0.46182997  0.69383394    -0.05770
N701        N  0.22001171  0.06251616  0.77486678    -0.25300
N702        N  0.22313507  0.44268015  0.65818965    -0.46060
H703        H  0.19055375  0.06295889  0.64012163     0.07590
C704        C  0.32800187  0.05983653  0.76430376    -0.06190
Cl705      Cl  0.24200118  0.51212232  0.72835827    -0.49190
C706        C  0.30371618  0.43572394  0.76936358     0.43340
H707        H  0.18886989  0.09828541  0.78313918     0.07550
N708        N  0.33816462  0.04526367  0.71621118    -0.45900
C709        C  0.36765622  0.08972931  0.73251136    -0.04600
C710        C  0.35570134  0.11703976  0.73675361    -0.01720
C711        C  0.37535392  0.14024454  0.73162648     0.03270
C712        C  0.40829084  0.13682088  0.72299046    -0.04600
C713        C  0.41987993  0.10895639  0.71853536    -0.01710
C714        C  0.39954715  0.08592818  0.72283996     0.03270
C715        C  0.32238460  0.12146421  0.74543923     0.37920
C716        C  0.45279063  0.10279077  0.71002439     0.37910
C717        C  0.41198774  0.05787902  0.71819651     0.36330
C718        C  0.36079332  0.16765080  0.73536761     0.36330
N719        N  0.42183927  0.03552684  0.71448062    -0.38490
N720        N  0.34886295  0.18936701  0.73851457    -0.38490
N721        N  0.47879341  0.09626250  0.70348110    -0.37930
N722        N  0.29584323  0.12510790  0.75232828    -0.37940
C723        C  0.09268098  0.37638572  0.73514499    -0.04600
C724        C  0.07778162  0.39633277  0.71396739    -0.01720
C725        C  0.09346483  0.42189099  0.70914595     0.03270
C726        C  0.12350832  0.42892005  0.72655738    -0.04600
C727        C  0.13801261  0.40941052  0.74823985    -0.01710
C728        C  0.12298483  0.38338828  0.75220514     0.03270
C729        C  0.04601156  0.39080839  0.69709106     0.37920
C730        C  0.16904840  0.41585351  0.76603940     0.37910
C731        C  0.13849904  0.36415583  0.77472618     0.36330
C732        C  0.07841048  0.44120572  0.68626711     0.36330
N733        N  0.15133277  0.34919162  0.79298624    -0.38490
N734        N  0.06648783  0.45659928  0.66793392    -0.38490
N735        N  0.19378196  0.42110029  0.78025150    -0.37930
N736        N  0.02043065  0.38674227  0.68384189    -0.37940
C737        C  0.24797631  0.39904081  0.63862281    -0.04600
C738        C  0.27042331  0.39747405  0.61583145    -0.01720
C739        C  0.26303633  0.38133915  0.58883074     0.03270
C740        C  0.23825246  0.36075304  0.58768910    -0.04600
C741        C  0.21889181  0.35935236  0.61327657    -0.01710
C742        C  0.22254631  0.37947476  0.63766920     0.03270
C743        C  0.30096034  0.41276243  0.61938505     0.37920
C744        C  0.19524379  0.33760336  0.61502675     0.37910
C745        C  0.20113612  0.37932160  0.66268085     0.36330
C746        C  0.27925718  0.38836615  0.56150011     0.36330
N747        N  0.18424023  0.37914325  0.68277079    -0.38490
N748        N  0.29178877  0.39419908  0.53958480    -0.38490
N749        N  0.17627700  0.32037473  0.61719764    -0.37930
N750        N  0.32552323  0.42463092  0.62196831    -0.37940
C751        C  0.25357523  0.12410803  0.82346245    -0.04600
C752        C  0.28350205  0.12398083  0.84423989    -0.01720
C753        C  0.29208299  0.14698989  0.86401657     0.03270
C754        C  0.27076963  0.17011612  0.86486166    -0.04600
C755        C  0.24265758  0.17146636  0.84291520    -0.01710
C756        C  0.23411557  0.14887302  0.82227897     0.03270
C757        C  0.30570943  0.10001346  0.84691477     0.37920
C758        C  0.22376916  0.19715313  0.84035222     0.37910
C759        C  0.20579158  0.15179561  0.79942528     0.36330
C760        C  0.32295272  0.14670461  0.88397534     0.36330
N761        N  0.18322729  0.15464369  0.78116637    -0.38490
N762        N  0.34779831  0.14650174  0.89950559    -0.38490
N763        N  0.20966977  0.21814678  0.83790183    -0.37930
N764        N  0.32373880  0.08113766  0.84956423    -0.37940
C765        C  0.14841297  0.23535943  0.87585138    -0.04600
C766        C  0.13554372  0.21043119  0.86267875    -0.01720
C767        C  0.12558884  0.20835392  0.83045991     0.03270
C768        C  0.12771591  0.23145174  0.81057904    -0.04600
C769        C  0.14459200  0.25509370  0.82326547    -0.01710
C770        C  0.15406922  0.25733558  0.85575869     0.03270
C771        C  0.13326591  0.18635117  0.88220171     0.37920
C772        C  0.15658140  0.27532687  0.80289439     0.37910
C773        C  0.17325500  0.28085244  0.86777101     0.36330
C774        C  0.11545624  0.18146314  0.81783545     0.36330
N775        N  0.18914980  0.29935670  0.87703553    -0.38490
N776        N  0.10785943  0.15979823  0.80813342    -0.38490
N777        N  0.16755241  0.29105724  0.78692656    -0.37930
N778        N  0.13155053  0.16713342  0.89768898    -0.37940
C779        C  0.38339452  0.28067596  0.64696672    -0.04600
C780        C  0.38978582  0.25951664  0.62520695    -0.01720
C781        C  0.38011517  0.26287430  0.59277684     0.03270
C782        C  0.36336865  0.28748211  0.58119016    -0.04600
C783        C  0.35901641  0.30922971  0.60331724    -0.01710
C784        C  0.36767271  0.30536147  0.63566170     0.03270
C785        C  0.40845991  0.23488744  0.63578467     0.37920
C786        C  0.35076174  0.33723910  0.59334673     0.37910
C787        C  0.36134959  0.32758461  0.65755664     0.36330
C788        C  0.39091764  0.24184966  0.57151421     0.36330
N789        N  0.35632467  0.34528928  0.67496283    -0.38490
N790        N  0.40091548  0.22496576  0.55539276    -0.38490
N791        N  0.34549825  0.36008927  0.58640252    -0.37930
N792        N  0.42344646  0.21524966  0.64403339    -0.37940
C793        C  0.39753872  0.11094193  0.52748372    -0.04600
C794        C  0.37396222  0.11548799  0.00102565    -0.01720
C795        C  0.34864441  0.13589561  0.00194539     0.03270
C796        C  0.34702591  0.15314021  0.52830536    -0.04600
C797        C  0.36808008  0.14712751  0.55550318    -0.01710
C798        C  0.39221713  0.12534682  0.55540124     0.03270
C799        C  0.37415468  0.09882940  0.97269856     0.37920
C800        C  0.36501734  0.16354582  0.58348515     0.37910
C801        C  0.41099606  0.11727154  0.58408184     0.36330
C802        C  0.32424442  0.13954677  0.97533225     0.36330
N803        N  0.42524639  0.10978173  0.60701802    -0.38490
N804        N  0.30432173  0.14232300  0.95452045    -0.38490
N805        N  0.36243678  0.17668406  0.60580776    -0.37930
N806        N  0.37369186  0.08569305  0.94997629    -0.37940
C807        C  0.15942901  0.37636432  0.93014538    -0.04600
C808        C  0.13349532  0.37793680  0.90573673    -0.01720
C809        C  0.10580988  0.39620508  0.90781014     0.03270
C810        C  0.10238162  0.41195191  0.93525310    -0.04600
C811        C  0.13000784  0.41209780  0.95854251    -0.01710
C812        C  0.15813246  0.39462909  0.95579884     0.03270
C813        C  0.13435795  0.35947578  0.87908614     0.37920
C814        C  0.12998840  0.42934055  0.98633307     0.37910
C815        C  0.18467409  0.39382525  0.98090660     0.36330
C816        C  0.08013739  0.39783658  0.88213102     0.36330
N817        N  0.20570641  0.39317907  0.00099611    -0.38490
N818        N  0.05981775  0.39938936  0.86147543    -0.38490
N819        N  0.13065326  0.44201279  0.00936947    -0.37930
N820        N  0.13472263  0.34454464  0.85790914    -0.37940
C821        C  0.14044377  0.00340716  0.91972042    -0.04600
C822        C  0.13034414  0.98802386  0.89209900    -0.01720
C823        C  0.15279482  0.48097779  0.87002583     0.03270
C824        C  0.18418542  0.49329111  0.87123994    -0.04600
C825        C  0.19496231  0.00825139  0.89885723    -0.01710
C826        C  0.17368239  0.01233234  0.92336685     0.03270
C827        C  0.09585709  0.98215459  0.88343163     0.37920
C828        C  0.22719669  0.02062230  0.90149587     0.37910
C829        C  0.18515639  0.02769914  0.95125634     0.36330
C830        C  0.14263685  0.46156439  0.84497654     0.36330
N831        N  0.19430746  0.03994701  0.97359588    -0.38490
N832        N  0.13423268  0.44610796  0.82515782    -0.38490
N833        N  0.25297330  0.03054241  0.90360140    -0.37930
N834        N  0.06852108  0.97856765  0.87450863    -0.37940
C835        C  0.34043855  0.50983804  0.53725400    -0.04600
C836        C  0.32660960  0.03677533  0.54082898    -0.01720
C837        C  0.30760571  0.04328218  0.56611980     0.03270
C838        C  0.29581157  0.02196823  0.58387712    -0.04600
C839        C  0.30238905  0.49442143  0.57460167    -0.01710
C840        C  0.32682924  0.48832335  0.55378658     0.03270
C841        C  0.32552441  0.05593921  0.51555485     0.37920
C842        C  0.28092302  0.47321540  0.58372713     0.37910
C843        C  0.33717833  0.45990612  0.54864116     0.36330
C844        C  0.29953332  0.07188830  0.57326666     0.36330
N845        N  0.34586390  0.43729339  0.54448010    -0.38490
N846        N  0.29328896  0.09477186  0.57906292    -0.38490
N847        N  0.26146726  0.45761640  0.58991221    -0.37930
N848        N  0.32088832  0.07064433  0.49463513    -0.37940
C849        C  0.00445649  0.34922618  0.61307395    -0.04600
C850        C  0.47544927  0.35661017  0.59406332    -0.01720
C851        C  0.47330569  0.38144426  0.57674302     0.03270
C852        C  0.00071216  0.39899940  0.57731819    -0.04600
C853        C  0.03073240  0.39050545  0.59447313    -0.01710
C854        C  0.03258651  0.36579208  0.61217245     0.03270
C855        C  0.44850673  0.33743952  0.59079951     0.37920
C856        C  0.05952643  0.40778823  0.59513553     0.37910
C857        C  0.06324621  0.35795378  0.63016668     0.36330
C858        C  0.44312829  0.38839145  0.55749689     0.36330
N859        N  0.08775856  0.35173583  0.64448030    -0.38490
N860        N  0.41904080  0.39385356  0.54209984    -0.38490
N861        N  0.08254222  0.42154044  0.59570204    -0.37930
N862        N  0.42773107  0.32141394  0.58775896    -0.37940
C863        C  0.49556172  0.16002646  0.84609382    -0.04600
C864        C  0.46855426  0.14187353  0.84264885    -0.01720
C865        C  0.46727499  0.11900413  0.86285714     0.03270
C866        C  0.49337777  0.11359203  0.88629628    -0.04600
C867        C  0.51938033  0.13267751  0.89081165    -0.01710
C868        C  0.51986809  0.15611614  0.87136430     0.03270
C869        C  0.44209964  0.14656296  0.81819869     0.37920
C870        C  0.04516582  0.12865726  0.91607000     0.37910
C871        C  0.04354367  0.17773690  0.87883833     0.36330
C872        C  0.43940821  0.10060678  0.85896848     0.36330
N873        N  0.06114869  0.19592891  0.88496484    -0.38490
N874        N  0.41710723  0.08598699  0.85598370    -0.38490
N875        N  0.06573375  0.12546878  0.93626033    -0.37930
N876        N  0.42075970  0.15038642  0.79890483    -0.37940
C877        C  0.15914360  0.11150125  0.67133182    -0.04600
C878        C  0.17774807  0.12706643  0.65297165    -0.01720
C879        C  0.16136150  0.14456300  0.63063219     0.03270
C880        C  0.12544256  0.14670104  0.62765376    -0.04600
C881        C  0.11076716  0.13885343  0.65469456    -0.01710
C882        C  0.12651178  0.11916784  0.67480779     0.03270
C883        C  0.21350535  0.12286287  0.65518467     0.37920
C884        C  0.08478686  0.15471545  0.66700720     0.37910
C885        C  0.10911465  0.10695528  0.69895228     0.36330
C886        C  0.18289869  0.15671026  0.60980144     0.35830
N887        N  0.09529929  0.09739324  0.71831495    -0.38490
N888        N  0.20230420  0.16483424  0.59442791    -0.38490
N889        N  0.06514884  0.16603340  0.68027378    -0.37930
N890        N  0.24184525  0.11944934  0.65678532    -0.37940
C891        C  0.06737329  0.16222473  0.59462881    -0.04600
C892        C  0.05384910  0.18659459  0.57751483    -0.01720
C893        C  0.02425202  0.19900293  0.58523710     0.03270
C894        C  0.01000328  0.18875821  0.61023299    -0.04600
C895        C  0.01382477  0.16019509  0.61568377    -0.01710
C896        C  0.04329267  0.14674041  0.60872029     0.03270
C897        C  0.06784982  0.19933439  0.55155784     0.37920
C898        C  0.99087529  0.14653626  0.63369247     0.37910
C899        C  0.04895065  0.11827535  0.61862106     0.36330
C900        C  0.01043465  0.22416047  0.57069645     0.36330
N901        N  0.05256333  0.09587494  0.62775351    -0.38490
N902        N  0.99929804  0.24422200  0.55922728    -0.38490
N903        N  0.97291102  0.13583447  0.64865577    -0.37930
N904        N  0.07759114  0.21029001  0.53065407    -0.37940
C905        C  0.16661708  0.21334347  0.56401353    -0.04600
C906        C  0.15388718  0.19373484  0.54173969    -0.01720
C907        C  0.13660520  0.17170671  0.55145235     0.03270
C908        C  0.12296184  0.17422633  0.58058197    -0.04600
C909        C  0.12789834  0.19964422  0.59852508    -0.01710
C910        C  0.15184011  0.21793738  0.59125534     0.03270
C911        C  0.15857989  0.19539473  0.00892220     0.37920
C912        C  0.11156272  0.20602908  0.62630120     0.37910
C913        C  0.16251288  0.24042842  0.61240609     0.36330
C914        C  0.13628305  0.14705618  0.53166552     0.36330
N915        N  0.17106152  0.25814699  0.62946746    -0.38490
N916        N  0.13723284  0.12796450  0.51516238    -0.38490
N917        N  0.09977581  0.21236164  0.64874404    -0.37930
N918        N  0.16062909  0.19506239  0.98240598    -0.37940
C919        C  0.10362419  0.12298541  0.57644161    -0.04600
C920        C  0.07754942  0.11685976  0.55286675    -0.01720
C921        C  0.06625910  0.08975114  0.54951248     0.03270
C922        C  0.07945770  0.06954156  0.57066257    -0.04600
C923        C  0.10973765  0.07376168  0.58779319    -0.01710
C924        C  0.12378821  0.09985174  0.58715760     0.03270
C925        C  0.06293813  0.13723527  0.53102714     0.37920
C926        C  0.12736776  0.05062173  0.60332933     0.37910
C927        C  0.15899675  0.09992497  0.58508990     0.36330
C928        C  0.04227285  0.08247853  0.52364276     0.36330
N929        N  0.18703270  0.09866685  0.58249703    -0.38490
N930        N  0.52387845  0.07681102  0.50247174    -0.38490
N931        N  0.14049972  0.03147376  0.61514388    -0.37930
N932        N  0.05056816  0.15174548  0.51198559    -0.37940
C933        C  0.40446167  0.44615641  0.89406046    -0.04600
C934        C  0.41235025  0.42253005  0.91247325    -0.01720
C935        C  0.40004879  0.39671390  0.90166317     0.03270
C936        C  0.38181691  0.39562269  0.87208547    -0.04600
C937        C  0.36362950  0.42041346  0.86353073    -0.01710
C938        C  0.37746885  0.44583465  0.87164412     0.03270
C939        C  0.43460091  0.42452033  0.94079920     0.37920
C940        C  0.32903848  0.41982968  0.85232568     0.37910
C941        C  0.36460148  0.47102858  0.85653445     0.36330
C942        C  0.40731963  0.37228147  0.92024923     0.36330
N943        N  0.35450619  0.49108715  0.84431058    -0.38490
N944        N  0.41335204  0.35370039  0.93661373    -0.38490
N945        N  0.30086731  0.41862801  0.84570323    -0.37930
N946        N  0.95241071  0.42621556  0.96332695    -0.37940
C947        C  0.35805396  0.34864413  0.86426598    -0.04600
C948        C  0.32475474  0.35621951  0.86658948    -0.01720
C949        C  0.30057842  0.33731998  0.85606396     0.03270
C950        C  0.30855266  0.30916316  0.86078871    -0.04600
C951        C  0.34164470  0.30057230  0.85967146    -0.01710
C952        C  0.36622204  0.32005286  0.86715820     0.03270
C953        C  0.31734037  0.37426253  0.89218781     0.37920
C954        C  0.35019765  0.27135964  0.85690955     0.37910
C955        C  0.39604823  0.31084347  0.88546396     0.36330
C956        C  0.26651786  0.34651907  0.84959519     0.36330
N957        N  0.41931772  0.30255611  0.90030102    -0.38490
N958        N  0.23934478  0.35395108  0.84446996    -0.38490
N959        N  0.35693054  0.24803196  0.85487937    -0.37930
N960        N  0.31144188  0.38833034  0.91298189    -0.37940
C961        C  0.32625658  0.41385453  0.77960849    -0.04600
C962        C  0.36010228  0.41962202  0.78447939    -0.01720
C963        C  0.38064314  0.40151979  0.80259341     0.03270
C964        C  0.36598378  0.37924004  0.81716803    -0.04600
C965        C  0.33633074  0.36883738  0.80142179    -0.01710
C966        C  0.31492406  0.38733979  0.78467548     0.03270
C967        C  0.37308296  0.44521324  0.77357706     0.37920
C968        C  0.33104302  0.33943682  0.79671795     0.37910
C969        C  0.28147767  0.37958614  0.77387181     0.36330
C970        C  0.41546037  0.40754323  0.80788849     0.36330
N971        N  0.25475303  0.37338086  0.76541507    -0.38490
N972        N  0.44310569  0.41310772  0.81026512    -0.38490
N973        N  0.32669953  0.31615511  0.79134222    -0.37930
N974        N  0.38332865  0.46558936  0.76487296    -0.37940
C975        C  0.41422160  0.35567226  0.84339831    -0.04600
C976        C  0.44600477  0.35882185  0.86027311    -0.01720
C977        C  0.46981516  0.33707751  0.85922344     0.03270
C978        C  0.46145376  0.31251367  0.84264526    -0.04600
C979        C  0.42888058  0.30986132  0.82843738    -0.01710
C980        C  0.41161147  0.33376322  0.82135245     0.03270
C981        C  0.45823566  0.38538939  0.87106738     0.37920
C982        C  0.41429435  0.28427194  0.81604892     0.37910
C983        C  0.40353691  0.33856252  0.78831517     0.36330
C984        C  0.50341828  0.34032931  0.87329511     0.36330
N985        N  0.39767480  0.34204603  0.76182742    -0.38490
N986        N  0.53021450  0.34278654  0.88450457    -0.38490
N987        N  0.40255052  0.26408687  0.80575278    -0.37930
N988        N  0.47060883  0.40596608  0.87903766    -0.37940
C989        C  0.38071903  0.86971915  0.35007117    -0.01750
C990        C  0.10451210  0.65131747  0.09470703    -0.01750
C991        C  0.06942956  0.92586561  0.44092732     0.43190
N992        N  0.03457054  0.96123968  0.44061198     0.02080
C993        C  0.02857021  0.54109527  0.07213857    -0.05790
H994        H  0.45431186  0.95155375  0.07346288     0.07580
C995        C  0.37990553  0.01551222  0.48970508    -0.06140
Co996      Co  0.04384640  0.98196975  0.50469793     0.74180
N997        N  0.48691064  0.96888268  0.04228797    -0.25320
Co998      Co  0.47171147  0.01093856  0.03486503     0.74070
C999        C  0.37090854  0.00447627  0.51969675     0.43300
N1000       N  0.44256494  0.00360324  0.42769232     0.01700
N1001       N  0.42417941  0.00141017  0.01691550     0.01800
N1002       N  0.07319945  0.52339934  0.05092566    -0.46170
H1003       H  0.06945348  0.92176494  0.49344496     0.07560
N1004       N  0.01399936  0.95877114  0.03118041     0.02090
N1005       N  0.45569545  0.55349858  0.02624513     0.01830
C1006       C  0.42839344  0.59300919  0.02482452     0.43430
N1007       N  0.46891788  0.99201774  0.41670445    -0.24780
C1008       C  0.10898522  0.50183467  0.47294498    -0.05700
N1009       N  0.05301524  0.94572873  0.42273760    -0.45880
N1010       N  0.43920436  0.57120901  0.04353295    -0.46110
C1011       C  0.11493076  0.51283570  0.44176521     0.43210
N1012       N  0.04600196  0.51116059  0.03970972     0.02080
N1013       N  0.50224090  0.54483549  0.42329092    -0.24800
N1014       N  0.03983596  0.95317730  0.46972946    -0.25290
N1015       N  0.47593067  0.55607966  0.43438035     0.01720
H1016       H  0.53620397  0.56012217  0.39221405     0.07610
H1017       H  0.43470776  0.59773917  0.47323075     0.07640
N1018       N  0.01935151  0.52154071  0.05128538    -0.25340
N1019       N  0.41325513  0.01270931  0.49002294    -0.24950
N1020       N  0.06281070  0.51509088  0.44923713     0.02080
C1021       C  0.99860149  0.92540198  0.05892169     0.43480
C1022       C  0.45920540  0.97142335  0.39748209    -0.06210
N1023       N  0.45343185  0.56184643  0.49721864    -0.24950
H1024       H  0.36433307  0.02702851  0.47250383     0.07630
N1025       N  0.02174693  0.93324622  0.04070174    -0.46180
H1026       H  0.47541905  0.95754492  0.38605004     0.07610
C1027       C  0.49341282  0.58816764  0.40603505     0.43310
C1028       C  0.05841740  0.93007350  0.47169723    -0.05700
Co1029     Co  0.01661561  0.50337302  0.43200556     0.73820
N1030       N  0.41497247  0.99121096  0.41783305    -0.45890
C1031       C  0.06406559  0.54288159  0.07100684     0.43580
N1032       N  0.08466906  0.52090690  0.42963992    -0.45880
Co1033     Co  0.44636741  0.53353068  0.46179984     0.73890
C1034       C  0.44100493  0.58741434  0.49503938    -0.06210
C1035       C  0.47527434  0.94910913  0.06001517    -0.05770
N1036       N  0.07583395  0.50393500  0.47550651    -0.25300
N1037       N  0.40019919  0.99667771  0.03492157    -0.46060
H1038       H  0.51201349  0.55474612  0.08362935     0.07590
C1039       C  0.51512481  0.56362112  0.40528878    -0.06190
Cl1040     Cl  0.49458532  0.50733052  0.48334946    -0.49190
C1041       C  0.42366411  0.97093957  0.39858918     0.43340
H1042       H  0.12638926  0.49060748  0.48862698     0.07550
N1043       N  0.46947041  0.58168331  0.42418643    -0.45900
C1044       C  0.35054535  0.79038275  0.04668986     0.43190
N1045       N  0.32942670  0.77661788  0.50050549     0.02080
C1046       C  0.17161790  0.82533851  0.44342313    -0.05790
H1047       H  0.18652685  0.81565105  0.05734717     0.07580
C1048       C  0.22022562  0.71278807  0.04215121    -0.06140
Co1049     Co  0.27070489  0.81397291  0.47823637     0.74180
N1050       N  0.22047253  0.80941444  0.02235384    -0.25320
Co1051     Co  0.20117314  0.78099451  0.48774027     0.74070
C1052       C  0.19592853  0.72793960  0.05886363     0.43300
N1053       N  0.28684190  0.70434835  0.50247001     0.01700
N1054       N  0.20533659  0.75096567  0.01971394     0.01800
N1055       N  0.21608209  0.85175479  0.44040298    -0.46170
H1056       H  0.31698346  0.82936956  0.04280685     0.07560
N1057       N  0.24852730  0.82106074  0.01820195     0.02090
N1058       N  0.18392973  0.75307722  0.45272840     0.01830
C1059       C  0.16135750  0.73613159  0.40947934     0.43430
N1060       N  0.31365338  0.71745802  0.49712875    -0.24780
C1061       C  0.28097828  0.81560614  0.41084161    -0.05700
N1062       N  0.35044503  0.76970313  0.02493944    -0.45880
N1063       N  0.16177218  0.75853626  0.42875918    -0.46110
C1064       C  0.29345956  0.79747976  0.38710707     0.43210
N1065       N  0.22487319  0.82731213  0.45322825     0.02080
N1066       N  0.29089704  0.72012674  0.43063576    -0.24800
N1067       N  0.31438044  0.80062682  0.50489514    -0.25290
N1068       N  0.26371245  0.70765389  0.43629186     0.01720
H1069       H  0.32167289  0.71543022  0.39241185     0.07610
H1070       H  0.19387821  0.69716060  0.41387259     0.07640
N1071       N  0.19881685  0.81234102  0.45618758    -0.25340
N1072       N  0.22200240  0.72760128  0.51678286    -0.24950
N1073       N  0.30481317  0.77983047  0.43253461     0.02080
C1074       C  0.23512653  0.84064507  0.06049226     0.43480
C1075       C  0.34007044  0.70368679  0.51041804    -0.06210
N1076       N  0.19906809  0.72888262  0.44958790    -0.24950
H1077       H  0.22910765  0.69159570  0.04502131     0.07630
N1078       N  0.25776898  0.83938678  0.03987862    -0.46180
H1079       H  0.36524366  0.70777603  0.50633585     0.07610
C1080       C  0.27404029  0.68994547  0.39212096     0.43310
C1081       C  0.32670168  0.81103762  0.03257725    -0.05700
Co1082     Co  0.31116444  0.74901877  0.46492154     0.73820
N1083       N  0.29390881  0.68102359  0.51808710    -0.45890
C1084       C  0.18266941  0.85156914  0.43252017     0.43580
N1085       N  0.30732174  0.77545265  0.40265630    -0.45880
Co1086     Co  0.24206067  0.71644649  0.47679965     0.73890
C1087       C  0.18575607  0.71657835  0.42347858    -0.06210
C1088       C  0.20971796  0.82041898  0.04869245    -0.05770
N1089       N  0.28958162  0.80350240  0.43777967    -0.25300
N1090       N  0.19016560  0.75235340  0.04509514    -0.46060
H1091       H  0.14666588  0.81931053  0.44623200     0.07590
C1092       C  0.29989603  0.70988203  0.40316889    -0.06190
Cl1093     Cl  0.25632094  0.76511924  0.47689456    -0.49190
C1094       C  0.32726924  0.67964481  0.02512834     0.43340
H1095       H  0.26618496  0.83438858  0.40819946     0.07550
N1096       N  0.25323012  0.68954295  0.41442262    -0.45900
C1097       C  0.11046898  0.73070628  0.27782047     0.43190
N1098       N  0.06819091  0.72162986  0.24480246     0.02080
C1099       C  0.48199512  0.82772118  0.16199623    -0.05790
H1100       H  0.02444343  0.86161414  0.25301890     0.07580
C1101       C  0.48034272  0.77117477  0.31554375    -0.06140
Co1102     Co  0.05035969  0.77004515  0.20164990     0.74180
N1103       N  0.03404778  0.81922382  0.23969860    -0.25320
Co1104     Co  0.48628053  0.80365386  0.22886042     0.74070
C1105       C  0.48666519  0.79955965  0.32512492     0.43300
N1106       N  0.48608194  0.71311356  0.28776189     0.01700
N1107       N  0.48151522  0.79646718  0.27508529     0.01800
N1108       N  0.02687570  0.80686993  0.14429910    -0.46170
H1109       H  0.11686264  0.77245344  0.25308140     0.07560
N1110       N  0.05981615  0.80670259  0.22891358     0.02090
N1111       N  0.43953278  0.78900082  0.21509503     0.01830
C1112       C  0.39916000  0.78019398  0.18007314     0.43430
N1113       N  0.51268295  0.70093410  0.27845614    -0.24780
C1114       C  0.02827092  0.73335972  0.14325365    -0.05700
N1115       N  0.08617338  0.71267656  0.26989654    -0.45880
N1116       N  0.42227607  0.79869648  0.18983933    -0.46110
C1117       C  0.01037070  0.70715892  0.13776534     0.43210
N1118       N  0.02006097  0.79602629  0.17114837     0.02080
N1119       N  0.47382238  0.69035730  0.22106273    -0.24800
N1120       N  0.07869500  0.74534456  0.23484627    -0.25290
N1121       N  0.44786639  0.70417825  0.22918185     0.01720
H1122       H  0.48309525  0.64790052  0.21112565     0.07610
H1123       H  0.39235755  0.73728141  0.20112532     0.07640
N1124       N  0.49453728  0.80857503  0.18228581    -0.25340
N1125       N  0.47328627  0.77206443  0.28468269    -0.24950
N1126       N  0.02491142  0.71268409  0.18645590     0.02080
C1127       C  0.07609506  0.84891519  0.24016077     0.43480
C1128       C  0.02321170  0.68116248  0.29896847    -0.06210
N1129       N  0.42950030  0.76452297  0.22326045    -0.24950
H1130       H  0.47570984  0.75394699  0.33011888     0.07630
N1131       N  0.08499745  0.82393497  0.22796957    -0.46180
H1132       H  0.04146593  0.66524575  0.29516104     0.07610
C1133       C  0.42983146  0.66222933  0.21983181     0.43310
C1134       C  0.10530171  0.75264628  0.25406147    -0.05700
Co1135     Co  0.02147908  0.70622163  0.23213623     0.73820
N1136       N  0.47685681  0.70199352  0.31353205    -0.45890
C1137       C  0.00326324  0.82661128  0.13662257     0.43580
N1138       N  0.00921657  0.69624034  0.16580851    -0.45880
Co1139     Co  0.45766121  0.73939385  0.25648797     0.73890
C1140       C  0.40392676  0.75729856  0.20246042    -0.06210
C1141       C  0.04199747  0.84553022  0.24764961    -0.05770
N1142       N  0.03593663  0.73519395  0.17425977    -0.25300
N1143       N  0.49107357  0.81310314  0.29860084    -0.46060
H1144       H  0.46319023  0.84303672  0.16640920     0.07590
C1145       C  0.46512802  0.66403656  0.21447188    -0.06190
Cl1146     Cl  0.50404179  0.75486104  0.22977870    -0.49190
C1147       C  0.49964679  0.68214928  0.32261856     0.43340
H1148       H  0.03215527  0.74942081  0.12687425     0.07550
N1149       N  0.42173319  0.68822889  0.22941602    -0.45900
C1150       C  0.20039910  0.99485099  0.34081306     0.43190
N1151       N  0.23339308  0.00336058  0.30500273     0.02080
C1152       C  0.18534959  0.56314932  0.16422553    -0.05790
H1153       H  0.16041070  0.94931372  0.17309842     0.07580
C1154       C  0.27661576  0.93703245  0.17645947    -0.06140
Co1155     Co  0.19263384  0.52859406  0.25144395     0.74180
N1156       N  0.17505622  0.98529065  0.20121287    -0.25320
Co1157     Co  0.21159579  0.00358025  0.17679271     0.74070
C1158       C  0.24798058  0.92355631  0.15999037     0.43300
N1159       N  0.29936567  0.97290444  0.24381907     0.01700
N1160       N  0.23479101  0.96528622  0.17280620     0.01800
N1161       N  0.17159936  0.57662199  0.21201114    -0.46170
H1162       H  0.15512139  0.00595849  0.30742192     0.07560
N1163       N  0.16817495  0.99379796  0.22924472     0.02090
N1164       N  0.25017353  0.52014366  0.15179995     0.01830
C1165       C  0.28189167  0.52790868  0.11471132     0.43430
N1166       N  0.29166196  0.98052042  0.27167180    -0.24780
C1167       C  0.21306864  0.58854350  0.28554952    -0.05700
N1168       N  0.23289217  0.99728673  0.33529346    -0.45880
N1169       N  0.24994137  0.52452050  0.12117823    -0.46110
C1170       C  0.24441229  0.59879253  0.30289823     0.43210
N1171       N  0.18303066  0.55093982  0.21178514     0.02080
N1172       N  0.30975690  0.53741344  0.25620663    -0.24800
N1173       N  0.20317168  0.00657373  0.29149269    -0.25290
N1174       N  0.31634745  0.52931059  0.22803261     0.01720
H1175       H  0.32735691  0.57174809  0.28561317     0.07610
H1176       H  0.32821465  0.51929261  0.14757605     0.07640
N1177       N  0.19086466  0.54235397  0.18409792    -0.25340
N1178       N  0.26608104  0.96271287  0.18338023    -0.24950
N1179       N  0.25121352  0.55739390  0.28450064     0.02080
C1180       C  0.14058318  0.95578750  0.22070646     0.43480
C1181       C  0.29417903  0.95839208  0.28973775    -0.06210
N1182       N  0.28069600  0.51841853  0.16509697    -0.24950
H1183       H  0.30150541  0.92901211  0.18155367     0.07630
N1184       N  0.14829954  0.97638137  0.24189351    -0.46180
H1185       H  0.28779467  0.95838300  0.31333363     0.07610
C1186       C  0.34673900  0.56513518  0.23776324     0.43310
C1187       C  0.18128081  0.00134904  0.31154468    -0.05700
Co1188     Co  0.27251741  0.51925705  0.28000575     0.73820
N1189       N  0.30667749  0.94644974  0.24158894    -0.45890
C1190       C  0.17253328  0.58533787  0.18291633     0.43580
N1191       N  0.26594866  0.57774942  0.30051644    -0.45880
Co1192     Co  0.29146700  0.99618331  0.20541927     0.73890
C1193       C  0.30193644  0.52353510  0.14411973    -0.06210
C1194       C  0.15843644  0.96182885  0.19383878    -0.05770
N1195       N  0.22000484  0.56251905  0.27486583    -0.25300
N1196       N  0.22313814  0.94267927  0.15819456    -0.46060
H1197       H  0.19054487  0.56295826  0.14011899     0.07590
C1198       C  0.32799485  0.55983667  0.26430864    -0.06190
Cl1199     Cl  0.24200396  0.01212037  0.22836406    -0.49190
C1200       C  0.30372493  0.93572037  0.26936981     0.43340
H1201       H  0.18886505  0.59829076  0.28313225     0.07550
N1202       N  0.33815928  0.54526391  0.21621665    -0.45900
C1203       C  0.36764978  0.58973035  0.23251780    -0.04600
C1204       C  0.35569365  0.61704065  0.23675887    -0.01720
C1205       C  0.37534628  0.64024599  0.23163362     0.03270
C1206       C  0.40828418  0.63682323  0.22300001    -0.04600
C1207       C  0.41987471  0.60895883  0.21854639    -0.01710
C1208       C  0.39954206  0.58593005  0.22284931     0.03270
C1209       C  0.32237544  0.62146433  0.24544088     0.37920
C1210       C  0.45278699  0.60279379  0.21003923     0.37910
C1211       C  0.41198403  0.55788114  0.21820708     0.36330
C1212       C  0.36078472  0.66765199  0.23537377     0.36330
N1213       N  0.42183661  0.53552914  0.21449213    -0.38490
N1214       N  0.34885354  0.68936801  0.23851988    -0.38490
N1215       N  0.47879104  0.59626601  0.20349888    -0.37930
N1216       N  0.29583278  0.62510740  0.25232680    -0.37940
C1217       C  0.09267924  0.87638524  0.23514538    -0.04600
C1218       C  0.07778244  0.89633227  0.21396643    -0.01720
C1219       C  0.09346673  0.92189034  0.20914647     0.03270
C1220       C  0.12350851  0.92891948  0.22656094    -0.04600
C1221       C  0.13800968  0.90941025  0.24824542    -0.01710
C1222       C  0.12298111  0.88338800  0.25220896     0.03270
C1223       C  0.04601360  0.89080818  0.19708760     0.37920
C1224       C  0.16904318  0.91585344  0.26604889     0.37910
C1225       C  0.13849247  0.86415561  0.27473155     0.36330
C1226       C  0.07841502  0.94120498  0.18626621     0.36330
N1227       N  0.15132391  0.84919137  0.29299281    -0.38490
N1228       N  0.06649447  0.95659847  0.16793191    -0.38490
N1229       N  0.19377502  0.92110014  0.28026408    -0.37930
N1230       N  0.02043351  0.88674230  0.18383667    -0.37940
C1231       C  0.24797920  0.89904078  0.13862615    -0.04600
C1232       C  0.27042303  0.89747681  0.11583193    -0.01720
C1233       C  0.26303440  0.88134234  0.08883114     0.03270
C1234       C  0.23825330  0.86075403  0.08769188    -0.04600
C1235       C  0.21889642  0.85935092  0.11328174    -0.01710
C1236       C  0.22255155  0.87947285  0.13767472     0.03270
C1237       C  0.30095882  0.91276691  0.11938347     0.37920
C1238       C  0.19525185  0.83759973  0.11503413     0.37910
C1239       C  0.20114468  0.87931728  0.16268891     0.36330
C1240       C  0.27925044  0.88837159  0.06149843     0.36330
N1241       N  0.18425145  0.87913703  0.18278085    -0.38490
N1242       N  0.29177835  0.89420619  0.03958158    -0.38490
N1243       N  0.17628777  0.82036936  0.11720684    -0.37930
N1244       N  0.32552084  0.92463665  0.12196558    -0.37940
C1245       C  0.25357053  0.62411334  0.32345527    -0.04600
C1246       C  0.28349865  0.62398815  0.34423100    -0.01720
C1247       C  0.29207894  0.64699809  0.36400632     0.03270
C1248       C  0.27076380  0.67012303  0.36485153    -0.04600
C1249       C  0.24265118  0.67147185  0.34290586    -0.01710
C1250       C  0.23410979  0.64887774  0.32227082     0.03270
C1251       C  0.30570807  0.60002210  0.34690593     0.37920
C1252       C  0.22376100  0.69715773  0.34034300     0.37910
C1253       C  0.20578514  0.65179898  0.29941767     0.36330
C1254       C  0.32294924  0.64671473  0.38396432     0.36330
N1255       N  0.18322033  0.65464629  0.28115919    -0.38490
N1256       N  0.34779513  0.64651344  0.39949411    -0.38490
N1257       N  0.20966014  0.71815072  0.33789289    -0.37930
N1258       N  0.32373929  0.58114757  0.34955610    -0.37940
C1259       C  0.14840385  0.73536116  0.37584913    -0.04600
C1260       C  0.13553578  0.71043249  0.36267651    -0.01720
C1261       C  0.12558304  0.70835454  0.33045747     0.03270
C1262       C  0.12771039  0.73145224  0.31057658    -0.04600
C1263       C  0.14458464  0.75509494  0.32326322    -0.01710
C1264       C  0.15406017  0.75733739  0.35575659     0.03270
C1265       C  0.13325696  0.68635272  0.38219967     0.37920
C1266       C  0.15657437  0.77532815  0.30289236     0.37910
C1267       C  0.17324425  0.78085504  0.36776935     0.36330
C1268       C  0.11545229  0.68146329  0.31783291     0.36330
N1269       N  0.18913769  0.79935999  0.37703422    -0.38490
N1270       N  0.10785677  0.65979811  0.30813075    -0.38490
N1271       N  0.16754566  0.79105847  0.28692467    -0.37930
N1272       N  0.13154072  0.66713515  0.39768704    -0.37940
C1273       C  0.38338636  0.78067625  0.14696959    -0.04600
C1274       C  0.38978262  0.75951899  0.12520905    -0.01720
C1275       C  0.38011307  0.76287731  0.09277877     0.03270
C1276       C  0.36336325  0.78748397  0.08119270    -0.04600
C1277       C  0.35900528  0.80922943  0.10332107    -0.01710
C1278       C  0.36765996  0.80536007  0.13566555     0.03270
C1279       C  0.40846045  0.73489159  0.13578648     0.37920
C1280       C  0.35074699  0.83723873  0.09335269     0.37910
C1281       C  0.36133086  0.82758068  0.15756174     0.36330
C1282       C  0.39092007  0.74185513  0.07151549     0.36330
N1283       N  0.35630112  0.84528325  0.17496896    -0.38490
N1284       N  0.40092106  0.72497339  0.05539322    -0.38490
N1285       N  0.34548092  0.86008910  0.08641072    -0.37930
N1286       N  0.42344992  0.71525528  0.14403522    -0.37940
C1287       C  0.39755241  0.61094983  0.02746621    -0.04600
C1288       C  0.37395140  0.61548058  0.50103121    -0.01720
C1289       C  0.34863430  0.63588932  0.50194464     0.03270
C1290       C  0.34703633  0.65314533  0.02830006    -0.04600
C1291       C  0.36809488  0.64713074  0.05549453    -0.01710
C1292       C  0.39223326  0.62535141  0.05538659     0.03270
C1293       C  0.37414945  0.59881990  0.47270611     0.37920
C1294       C  0.36503484  0.66354546  0.08347955     0.37910
C1295       C  0.41101603  0.61727369  0.08406427     0.36330
C1296       C  0.32424023  0.63954066  0.47532684     0.36330
N1297       N  0.42527026  0.60978128  0.10699742    -0.38490
N1298       N  0.30432233  0.64231740  0.45451113    -0.38490
N1299       N  0.36245650  0.67668092  0.10580456    -0.37930
N1300       N  0.37369182  0.58568232  0.44998505    -0.37940
C1301       C  0.15942843  0.87636891  0.43015000    -0.04600
C1302       C  0.13349470  0.87794455  0.40574165    -0.01720
C1303       C  0.10581240  0.89621608  0.40781566     0.03270
C1304       C  0.10238672  0.91196263  0.43525922    -0.04600
C1305       C  0.13001246  0.91210421  0.45854923    -0.01710
C1306       C  0.15813450  0.89463274  0.45580462     0.03270
C1307       C  0.13435339  0.85948314  0.37909102     0.37920
C1308       C  0.12999474  0.92934471  0.48634166     0.37910
C1309       C  0.18467572  0.89382493  0.48091270     0.36330
C1310       C  0.08013995  0.89785100  0.38213675     0.36330
N1311       N  0.20570769  0.89317554  0.50100243    -0.38490
N1312       N  0.05982024  0.89940654  0.36148150    -0.38490
N1313       N  0.13066095  0.94201472  0.50937965    -0.37930
N1314       N  0.13471457  0.84455149  0.35791416    -0.37940
C1315       C  0.14044106  0.50341762  0.41972908    -0.04600
C1316       C  0.13033529  0.48803866  0.39210595    -0.01720
C1317       C  0.15279338  0.98098893  0.37003559     0.03270
C1318       C  0.18418733  0.99329635  0.37124841    -0.04600
C1319       C  0.19495858  0.50825505  0.39886190    -0.01710
C1320       C  0.17368196  0.51233706  0.42337404     0.03270
C1321       C  0.09584613  0.48217607  0.38344000     0.37920
C1322       C  0.22719618  0.52062019  0.40150003     0.37910
C1323       C  0.18516218  0.52769909  0.45126509     0.36330
C1324       C  0.14262862  0.96157784  0.34498600     0.36330
N1325       N  0.19431816  0.53994311  0.47360591    -0.38490
N1326       N  0.13421950  0.94612320  0.32516702    -0.38490
N1327       N  0.25297537  0.53053570  0.40360532    -0.37930
N1328       N  0.06850838  0.47859477  0.37451899    -0.37940
C1329       C  0.34044171  0.00983996  0.03726122    -0.04600
C1330       C  0.32662683  0.53678455  0.04084847    -0.01720
C1331       C  0.30762348  0.54328950  0.06613970     0.03270
C1332       C  0.29580977  0.52197350  0.08388107    -0.04600
C1333       C  0.30238987  0.99442343  0.07460660    -0.01710
C1334       C  0.32682989  0.98832512  0.05379148     0.03270
C1335       C  0.32555157  0.55595558  0.01558242     0.37920
C1336       C  0.28092101  0.97321832  0.08372922     0.37910
C1337       C  0.33717670  0.95990765  0.04864404     0.36330
C1338       C  0.29956943  0.57189628  0.07330147     0.36330
N1339       N  0.34586072  0.93729475  0.04448147    -0.38490
N1340       N  0.29333966  0.59478019  0.07910966    -0.38490
N1341       N  0.26146326  0.95762020  0.08991212    -0.37930
N1342       N  0.32092117  0.57066664  0.99466776    -0.37940
C1343       C  0.00445113  0.84922619  0.11307423    -0.04600
C1344       C  0.47544008  0.85661162  0.09406240    -0.01720
C1345       C  0.47329827  0.88144564  0.07674249     0.03270
C1346       C  0.00070964  0.89899907  0.07731866    -0.04600
C1347       C  0.03073062  0.89050218  0.09447015    -0.01710
C1348       C  0.03258335  0.86578889  0.11216941     0.03270
C1349       C  0.44849460  0.83744393  0.09080091     0.37920
C1350       C  0.05952685  0.90778212  0.09512948     0.37910
C1351       C  0.06324365  0.85794815  0.13016120     0.36330
C1352       C  0.44312014  0.88839583  0.05749890     0.36330
N1353       N  0.08775637  0.85172843  0.14447310    -0.38490
N1354       N  0.41903203  0.89386047  0.04210402    -0.38490
N1355       N  0.08254433  0.92153212  0.09569368    -0.37930
N1356       N  0.42771619  0.82142083  0.08776231    -0.37940
C1357       C  0.49556119  0.66003865  0.34610284    -0.04600
C1358       C  0.46855520  0.64188415  0.34266004    -0.01720
C1359       C  0.46727762  0.61901674  0.36287137     0.03270
C1360       C  0.49338094  0.61360810  0.38631107    -0.04600
C1361       C  0.51938180  0.63269531  0.39082418    -0.01710
C1362       C  0.51986752  0.65613222  0.37137410     0.03270
C1363       C  0.44210048  0.64656987  0.31820896     0.37920
C1364       C  0.04516203  0.62867052  0.41608060     0.37910
C1365       C  0.04353857  0.67774873  0.37884643     0.36330
C1366       C  0.43941215  0.60061788  0.35898521     0.36330
N1367       N  0.06114244  0.69594156  0.38497280    -0.38490
N1368       N  0.41711214  0.58599697  0.35600246    -0.38490
N1369       N  0.06572956  0.62548336  0.43627157    -0.37930
N1370       N  0.42076049  0.65039026  0.29891431    -0.37940
C1371       C  0.15911773  0.61149532  0.17132139    -0.04600
C1372       C  0.17772128  0.62707091  0.15297060    -0.01720
C1373       C  0.16133368  0.64456689  0.13063068     0.03270
C1374       C  0.12541407  0.64669726  0.12764499    -0.04600
C1375       C  0.11073413  0.63883667  0.15467830    -0.01710
C1376       C  0.12647934  0.61914786  0.17478670     0.03270
C1377       C  0.21348049  0.62287847  0.15519274     0.37920
C1378       C  0.08475594  0.65469654  0.16699768     0.37910
C1379       C  0.10907668  0.60691980  0.19891771     0.36330
C1380       C  0.18287240  0.65672008  0.10980568     0.35830
N1381       N  0.09525679  0.59734506  0.21826957    -0.38490
N1382       N  0.20228026  0.66484819  0.09443736    -0.38490
N1383       N  0.06512007  0.66601181  0.18026951    -0.37930
N1384       N  0.24182199  0.61947402  0.15680068    -0.37940
C1385       C  0.06734844  0.66221769  0.09461422    -0.04600
C1386       C  0.05382586  0.68658874  0.07750248    -0.01720
C1387       C  0.02423603  0.69900362  0.08523416     0.03270
C1388       C  0.00999028  0.68875968  0.11023266    -0.04600
C1389       C  0.01380589  0.66019545  0.11568044    -0.01710
C1390       C  0.04326699  0.64673549  0.10870651     0.03270
C1391       C  0.06782213  0.69932288  0.05153959     0.37920
C1392       C  0.99085962  0.64653968  0.13369549     0.37910
C1393       C  0.04891850  0.61826731  0.11859805     0.36330
C1394       C  0.01042330  0.72416469  0.07069829     0.36330
N1395       N  0.05252626  0.59586401  0.12772258    -0.38490
N1396       N  0.99929041  0.74422912  0.05923296    -0.38490
N1397       N  0.97289816  0.63584067  0.14866413    -0.37930
N1398       N  0.07756099  0.71027337  0.03063128    -0.37940
C1399       C  0.16659122  0.71333936  0.06400086    -0.04600
C1400       C  0.15386772  0.69372749  0.04172819    -0.01720
C1401       C  0.13658294  0.67170019  0.05144018     0.03270
C1402       C  0.12293731  0.67422041  0.08056888    -0.04600
C1403       C  0.12786897  0.69964001  0.09850971    -0.01710
C1404       C  0.15180680  0.71793638  0.09123828     0.03270
C1405       C  0.15858680  0.69540263  0.50892870     0.37920
C1406       C  0.11153653  0.70602101  0.12628884     0.37910
C1407       C  0.16247080  0.74043238  0.11238538     0.36330
C1408       C  0.13625830  0.64704998  0.03165274     0.36330
N1409       N  0.17101154  0.75815485  0.12944447    -0.38490
N1410       N  0.13720651  0.62795864  0.01514893    -0.38490
N1411       N  0.09975308  0.71234727  0.14873546    -0.37930
N1412       N  0.16062955  0.69507157  0.48241148    -0.37940
C1413       C  0.10360467  0.62297840  0.07643240    -0.04600
C1414       C  0.07753316  0.61684823  0.05285563    -0.01720
C1415       C  0.06625507  0.58973634  0.04949653     0.03270
C1416       C  0.07945636  0.56952941  0.07064842    -0.04600
C1417       C  0.10973192  0.57375549  0.08778371    -0.01710
C1418       C  0.12377492  0.59984854  0.08714957     0.03270
C1419       C  0.06291229  0.63722206  0.03101892     0.37920
C1420       C  0.12736490  0.55061908  0.10332397     0.37910
C1421       C  0.15898414  0.59992988  0.08508758     0.36330
C1422       C  0.04227676  0.58245807  0.02362223     0.36330
N1423       N  0.18702124  0.59867834  0.08249916    -0.38490
N1424       N  0.52389278  0.57678996  0.00245063    -0.38490
N1425       N  0.14049839  0.53147328  0.11514183    -0.37930
N1426       N  0.05053369  0.65172991  0.01197927    -0.37940
C1427       C  0.40448672  0.94618940  0.39404445    -0.04600
C1428       C  0.41238360  0.92256862  0.41246442    -0.01720
C1429       C  0.40008866  0.89674836  0.40166329     0.03270
C1430       C  0.38185279  0.89564839  0.37208826    -0.04600
C1431       C  0.36365664  0.92043405  0.36352974    -0.01710
C1432       C  0.37749119  0.94585895  0.37163177     0.03270
C1433       C  0.43463392  0.92456905  0.44078979     0.37920
C1434       C  0.32906380  0.91984190  0.35233286     0.37910
C1435       C  0.36461572  0.97104737  0.35651539     0.36330
C1436       C  0.40736666  0.87232181  0.42025748     0.36330
N1437       N  0.35451408  0.99110148  0.34428596    -0.38490
N1438       N  0.41340519  0.85374682  0.43662950    -0.38490
N1439       N  0.30089213  0.91863324  0.34571706    -0.37930
N1440       N  0.95244122  0.92626835  0.46331827    -0.37940
C1441       C  0.35809523  0.84866924  0.36428971    -0.04600
C1442       C  0.32479729  0.85624435  0.36661513    -0.01720
C1443       C  0.30062184  0.83734468  0.35609119     0.03270
C1444       C  0.30859523  0.80918723  0.36081546    -0.04600
C1445       C  0.34169116  0.80059620  0.35971732    -0.01710
C1446       C  0.36626627  0.82008010  0.36719508     0.03270
C1447       C  0.31738567  0.87428361  0.39221764     0.37920
C1448       C  0.35025022  0.77138353  0.35696754     0.37910
C1449       C  0.39609721  0.81087807  0.38549876     0.36330
C1450       C  0.26656308  0.84654610  0.34961382     0.36330
N1451       N  0.41937077  0.80259619  0.40033408    -0.38490
N1452       N  0.23939153  0.85398011  0.34448188    -0.38490
N1453       N  0.35698848  0.74805604  0.35494823    -0.37930
N1454       N  0.31148995  0.88834951  0.41301416    -0.37940
C1455       C  0.32627231  0.91385496  0.27961470    -0.04600
C1456       C  0.36011730  0.91962770  0.28447902    -0.01720
C1457       C  0.38066463  0.90153174  0.30259554     0.03270
C1458       C  0.36601247  0.87925289  0.31717809    -0.04600
C1459       C  0.33636061  0.86884282  0.30143794    -0.01710
C1460       C  0.31494721  0.88733919  0.28468969     0.03270
C1461       C  0.37309084  0.94521841  0.27356802     0.37920
C1462       C  0.33108059  0.83944039  0.29674262     0.37910
C1463       C  0.28150183  0.87957860  0.27389193     0.36330
C1464       C  0.41548004  0.90756281  0.30788909     0.36330
N1465       N  0.25477784  0.87336814  0.26543981    -0.38490
N1466       N  0.44312363  0.91313294  0.31026620    -0.38490
N1467       N  0.32674369  0.81615658  0.29137464    -0.37930
N1468       N  0.38333116  0.96559399  0.26485693    -0.37940
C1469       C  0.41425511  0.85569220  0.34340655    -0.04600
C1470       C  0.44604179  0.85884215  0.36027434    -0.01720
C1471       C  0.46984945  0.83709539  0.35922164     0.03270
C1472       C  0.46147919  0.81252801  0.34265256    -0.04600
C1473       C  0.42890105  0.80987636  0.32845693    -0.01710
C1474       C  0.41163753  0.83377949  0.32136620     0.03270
C1475       C  0.45827450  0.88540994  0.37106727     0.37920
C1476       C  0.41430762  0.78428743  0.31607585     0.37910
C1477       C  0.40357375  0.83857724  0.28832720     0.36330
C1478       C  0.50345727  0.84034761  0.37328027     0.36330
N1479       N  0.39771853  0.84205962  0.26183855    -0.38490
N1480       N  0.53025747  0.84280497  0.38447919    -0.38490
N1481       N  0.40255853  0.76410274  0.30578448    -0.37930
N1482       N  0.47064634  0.90598762  0.37903661    -0.37940
C1483       C  0.38068604  0.86969886  0.85006125    -0.01750
C1484       C  0.10452466  0.65132095  0.59471756    -0.01750
C1485       C  0.06942102  0.92585053  0.94091745     0.43190
N1486       N  0.03455767  0.96122181  0.94060016     0.02080
C1487       C  0.02855710  0.54110132  0.57214310    -0.05790
H1488       H  0.45431179  0.95154998  0.57346207     0.07580
C1489       C  0.37990073  0.01550905  0.98970768    -0.06140
Co1490     Co  0.04383857  0.98195794  0.00468344     0.74180
N1491       N  0.48691215  0.96888367  0.54229154    -0.25320
Co1492     Co  0.47171127  0.01094008  0.53487224     0.74070
C1493       C  0.37090711  0.00447770  0.01970247     0.43300
N1494       N  0.44254956  0.00358229  0.92769192     0.01700
N1495       N  0.42418195  0.00141098  0.51691472     0.01800
N1496       N  0.07319081  0.52340850  0.55093491    -0.46170
H1497       H  0.06944733  0.92175345  0.99343564     0.07560
N1498       N  0.01400601  0.95877927  0.53119016     0.02090
N1499       N  0.45568963  0.55350076  0.52625706     0.01830
C1500       C  0.42838207  0.59300835  0.52483924     0.43430
N1501       N  0.46890066  0.99199392  0.91670334    -0.24780
C1502       C  0.10898347  0.50182652  0.97293517    -0.05700
N1503       N  0.05300352  0.94571118  0.92272654    -0.45880
N1504       N  0.43919195  0.57120623  0.54354491    -0.46110
C1505       C  0.11492821  0.51282439  0.94175386     0.43210
N1506       N  0.04599601  0.51116628  0.53971799     0.02080
N1507       N  0.50223124  0.54481753  0.92327416    -0.24800
N1508       N  0.03982526  0.95316201  0.96971832    -0.25290
N1509       N  0.47592212  0.55606319  0.93436401     0.01720
H1510       H  0.53619448  0.56010197  0.89219593     0.07610
H1511       H  0.43471095  0.59773095  0.97321293     0.07640
N1512       N  0.01934301  0.52154418  0.55129123    -0.25340
N1513       N  0.41324983  0.01270465  0.99002251    -0.24950
N1514       N  0.06280777  0.51507760  0.94922483     0.02080
C1515       C  0.99860708  0.92540641  0.55892623     0.43480
C1516       C  0.45918656  0.97138949  0.89749579    -0.06210
N1517       N  0.45343280  0.56183965  0.99720478    -0.24950
H1518       H  0.36432672  0.02702365  0.97250600     0.07630
N1519       N  0.02175429  0.93325387  0.54070975    -0.46180
H1520       H  0.47539963  0.95750778  0.88606807     0.07610
C1521       C  0.49340456  0.58814934  0.90601625     0.43310
C1522       C  0.05840915  0.93005951  0.97168745    -0.05700
Co1523     Co  0.01660963  0.50336182  0.93199891     0.73820
N1524       N  0.41495698  0.99118297  0.91784737    -0.45890
C1525       C  0.06405253  0.54289051  0.57101436     0.43580
N1526       N  0.08466568  0.52089169  0.92962632    -0.45880
Co1527     Co  0.44636210  0.53351877  0.96179131     0.73890
C1528       C  0.44100906  0.58740848  0.99502270    -0.06210
C1529       C  0.47527559  0.94910766  0.56001571    -0.05770
N1530       N  0.07583194  0.50392500  0.97549582    -0.25300
N1531       N  0.40019948  0.99667462  0.53491685    -0.46060
H1532       H  0.51200269  0.55475654  0.58363250     0.07590
C1533       C  0.51511523  0.56360188  0.90527033    -0.06190
Cl1534     Cl  0.49458214  0.50732088  0.98334044    -0.49190
C1535       C  0.42364667  0.97090395  0.89861217     0.43340
H1536       H  0.12638870  0.49060264  0.98861948     0.07550
N1537       N  0.46946296  0.58166676  0.92416930    -0.45900
C1538       C  0.35054565  0.79037687  0.54668782     0.43190
N1539       N  0.32943226  0.77662220  0.00050571     0.02080
C1540       C  0.17162329  0.82533592  0.94341983    -0.05790
H1541       H  0.18651874  0.81564548  0.55734884     0.07580
C1542       C  0.22023664  0.71278948  0.54215179    -0.06140
Co1543     Co  0.27071121  0.81397540  0.97823211     0.74180
N1544       N  0.22046457  0.80941060  0.52235602    -0.25320
Co1545     Co  0.20118066  0.78099609  0.98774023     0.74070
C1546       C  0.19594395  0.72793988  0.55886993     0.43300
N1547       N  0.28685108  0.70435161  0.00247702     0.01700
N1548       N  0.20533212  0.75096263  0.51971194     0.01800
N1549       N  0.21608523  0.85175426  0.94039741    -0.46170
H1550       H  0.31697444  0.82936526  0.54282148     0.07560
N1551       N  0.24852007  0.82105592  0.51820570     0.02090
N1552       N  0.18393781  0.75307692  0.95272990     0.01830
C1553       C  0.16136764  0.73613064  0.90948021     0.43430
N1554       N  0.31366163  0.71746250  0.99713504    -0.24780
C1555       C  0.28097364  0.81559837  0.91083491    -0.05700
N1556       N  0.35044370  0.76969819  0.52493579    -0.45880
N1557       N  0.16178145  0.75853555  0.92875959    -0.46110
C1558       C  0.29344834  0.79746716  0.88710180     0.43210
N1559       N  0.22487837  0.82731258  0.95322434     0.02080
N1560       N  0.29090581  0.72012475  0.93064093    -0.24800
N1561       N  0.31438720  0.80063168  0.00489110    -0.25290
N1562       N  0.26372163  0.70765197  0.93629847     0.01720
H1563       H  0.32168139  0.71542532  0.89241709     0.07610
H1564       H  0.19388824  0.69715973  0.91387558     0.07640
N1565       N  0.19882326  0.81234053  0.95618513    -0.25340
N1566       N  0.22200492  0.72760297  0.01678669    -0.24950
N1567       N  0.30482107  0.77982961  0.93253290     0.02080
C1568       C  0.23511977  0.84063878  0.56049747     0.43480
C1569       C  0.34008003  0.70369346  0.01042520    -0.06210
N1570       N  0.19907636  0.72888213  0.94959081    -0.24950
H1571       H  0.22912571  0.69159923  0.54502413     0.07630
N1572       N  0.25776213  0.83938034  0.53988373    -0.46180
H1573       H  0.36525290  0.70778439  0.00634326     0.07610
C1574       C  0.27404950  0.68993979  0.89212906     0.43310
C1575       C  0.32669750  0.81102913  0.53258086    -0.05700
Co1576     Co  0.31117216  0.74902035  0.96492405     0.73820
N1577       N  0.29392066  0.68102697  0.01809381    -0.45890
C1578       C  0.18267251  0.85156641  0.93251471     0.43580
N1579       N  0.30732333  0.77544644  0.90265417    -0.45880
Co1580     Co  0.24206844  0.71644733  0.97680510     0.73890
C1581       C  0.18576569  0.71657757  0.92348094    -0.06210
C1582       C  0.20971008  0.82041409  0.54869522    -0.05770
N1583       N  0.28958665  0.80350109  0.93777521    -0.25300
N1584       N  0.19017265  0.75235211  0.54509980    -0.46060
H1585       H  0.14667185  0.81930684  0.94622939     0.07590
C1586       C  0.29990482  0.70987770  0.90317489    -0.06190
Cl1587     Cl  0.25632830  0.76512076  0.97689576    -0.49190
C1588       C  0.32725692  0.67963972  0.52512221     0.43340
H1589       H  0.26617391  0.83437701  0.90818998     0.07550
N1590       N  0.25323964  0.68953913  0.91443108    -0.45900
C1591       C  0.11047483  0.73070559  0.77782154     0.43190
N1592       N  0.06819747  0.72162907  0.74480233     0.02080
C1593       C  0.48200587  0.82772051  0.66199742    -0.05790
H1594       H  0.02444994  0.86161350  0.75302248     0.07580
C1595       C  0.48033637  0.77116611  0.81554236    -0.06140
Co1596     Co  0.05036623  0.77004580  0.70165117     0.74180
N1597       N  0.03405441  0.81922329  0.73970214    -0.25320
Co1598     Co  0.48628787  0.80365039  0.72886189     0.74070
C1599       C  0.48665211  0.79955103  0.82512582     0.43300
N1600       N  0.48608353  0.71310636  0.78775696     0.01700
N1601       N  0.48151838  0.79646066  0.77508629     0.01800
N1602       N  0.02688256  0.80687172  0.64430129    -0.46170
H1603       H  0.11686784  0.77245346  0.75308378     0.07560
N1604       N  0.05982254  0.80670237  0.72891621     0.02090
N1605       N  0.43954045  0.78899890  0.71509339     0.01830
C1606       C  0.39916683  0.78019639  0.68007050     0.43430
N1607       N  0.51268555  0.70092783  0.77845224    -0.24780
C1608       C  0.02827768  0.73336182  0.64325338    -0.05700
N1609       N  0.08617958  0.71267562  0.76989670    -0.45880
N1610       N  0.42228480  0.79869679  0.68983834    -0.46110
C1611       C  0.01037659  0.70716139  0.63776450     0.43210
N1612       N  0.02006774  0.79602801  0.67115054     0.02080
N1613       N  0.47382762  0.69035425  0.72105654    -0.24800
N1614       N  0.07870138  0.74534419  0.73484699    -0.25290
N1615       N  0.44787121  0.70417557  0.72917403     0.01720
H1616       H  0.48309960  0.64789759  0.71111763     0.07610
H1617       H  0.39235923  0.73728381  0.70112156     0.07640
N1618       N  0.49454727  0.80857412  0.68228740    -0.25340
N1619       N  0.47328848  0.77205713  0.78468064    -0.24950
N1620       N  0.02491751  0.71268549  0.68645493     0.02080
C1621       C  0.07610113  0.84891511  0.74016287     0.43480
C1622       C  0.02321699  0.68115669  0.79896372    -0.06210
N1623       N  0.42950596  0.76452120  0.72325702    -0.24950
H1624       H  0.47569790  0.75393788  0.83011474     0.07630
N1625       N  0.08500340  0.82393503  0.72797141    -0.46180
H1626       H  0.04147077  0.66523997  0.79515490     0.07610
C1627       C  0.42983535  0.66222747  0.71982115     0.43310
C1628       C  0.10530755  0.75264594  0.75406293    -0.05700
Co1629     Co  0.02148554  0.70622079  0.73213437     0.73820
N1630       N  0.47685628  0.70198413  0.81352514    -0.45890
C1631       C  0.00327034  0.82661322  0.63662461     0.43580
N1632       N  0.00922237  0.69624224  0.66580725    -0.45880
Co1633     Co  0.45766507  0.73938902  0.75648318     0.73890
C1634       C  0.40393111  0.75729983  0.70245701    -0.06210
C1635       C  0.04200405  0.84552971  0.74765306    -0.05770
N1636       N  0.03594321  0.73519547  0.67425956    -0.25300
N1637       N  0.49106795  0.81309649  0.79860459    -0.46060
H1638       H  0.46320035  0.84303575  0.66640949     0.07590
C1639       C  0.46513269  0.66403396  0.71446369    -0.06190
Cl1640     Cl  0.50404785  0.75485730  0.72977771    -0.49190
C1641       C  0.49964574  0.68213926  0.82261135     0.43340
H1642       H  0.03216215  0.74942316  0.62687430     0.07550
N1643       N  0.42173724  0.68822690  0.72940562    -0.45900
C1644       C  0.20039944  0.99484827  0.84080550     0.43190
N1645       N  0.23339297  0.00336266  0.80499685     0.02080
C1646       C  0.18535165  0.56314742  0.66422716    -0.05790
H1647       H  0.16040983  0.94931504  0.67309320     0.07580
C1648       C  0.27661232  0.93703232  0.67645965    -0.06140
Co1649     Co  0.19264016  0.52859052  0.75144418     0.74180
N1650       N  0.17505519  0.98529221  0.70120740    -0.25320
Co1651     Co  0.21159426  0.00358179  0.67678686     0.74070
C1652       C  0.24797711  0.92355537  0.65999111     0.43300
N1653       N  0.29936511  0.97290826  0.74381426     0.01700
N1654       N  0.23478927  0.96528758  0.67280070     0.01800
N1655       N  0.17160695  0.57661951  0.71201494    -0.46170
H1656       H  0.15512080  0.00595369  0.80741479     0.07560
N1657       N  0.16817457  0.99379922  0.72923953     0.02090
N1658       N  0.25017498  0.52014224  0.65179670     0.01830
C1659       C  0.28189124  0.52790757  0.61470638     0.43430
N1660       N  0.29166140  0.98052491  0.77166676    -0.24780
C1661       C  0.21307367  0.58853952  0.78555325    -0.05700
N1662       N  0.23289238  0.99728680  0.83528699    -0.45880
N1663       N  0.24994144  0.52451884  0.62117476    -0.46110
C1664       C  0.24441764  0.59878887  0.80290135     0.43210
N1665       N  0.18303541  0.55093665  0.71178660     0.02080
N1666       N  0.30976214  0.53741316  0.75620177    -0.24800
N1667       N  0.20317146  0.00657431  0.79148669    -0.25290
N1668       N  0.31635150  0.52931052  0.72802729     0.01720
H1669       H  0.32736311  0.57174767  0.78560816     0.07610
H1670       H  0.32821555  0.51929239  0.64756966     0.07640
N1671       N  0.19086718  0.54235132  0.68409841    -0.25340
N1672       N  0.26607893  0.96271417  0.68337600    -0.24950
N1673       N  0.25122004  0.55739183  0.78449933     0.02080
C1674       C  0.14058364  0.95578833  0.72070183     0.43480
C1675       C  0.29417663  0.95839707  0.78973330    -0.06210
N1676       N  0.28069792  0.51841767  0.66509258    -0.24950
H1677       H  0.30150078  0.92901092  0.68155854     0.07630
N1678       N  0.14830009  0.97638217  0.74188878    -0.46180
H1679       H  0.28779233  0.95838853  0.81332932     0.07610
C1680       C  0.34674291  0.56513512  0.73775693     0.43310
C1681       C  0.18128075  0.00134659  0.81153766    -0.05700
Co1682     Co  0.27252479  0.51925559  0.78000271     0.73820
N1683       N  0.30667531  0.94645333  0.74158470    -0.45890
C1684       C  0.17253931  0.58533632  0.68292050     0.43580
N1685       N  0.26595497  0.57774697  0.80051609    -0.45880
Co1686     Co  0.29146542  0.99618560  0.70541365     0.73890
C1687       C  0.30193720  0.52353448  0.64411431    -0.06210
C1688       C  0.15843580  0.96183015  0.69383363    -0.05770
N1689       N  0.22001062  0.56251604  0.77486672    -0.25300
N1690       N  0.22313558  0.94267932  0.65819232    -0.46060
H1691       H  0.19054544  0.56295684  0.64012018     0.07590
C1692       C  0.32800005  0.55983652  0.76430323    -0.06190
Cl1693     Cl  0.24200280  0.01212249  0.72835848    -0.49190
C1694       C  0.30371975  0.93572491  0.76936528     0.43340
H1695       H  0.18886947  0.59828584  0.78313862     0.07550
N1696       N  0.33816256  0.54526395  0.71621052    -0.45900
C1697       C  0.36765367  0.58972985  0.73251059    -0.04600
C1698       C  0.35569803  0.61704024  0.73675174    -0.01720
C1699       C  0.37535030  0.64024522  0.73162449     0.03270
C1700       C  0.40828764  0.63682188  0.72298954    -0.04600
C1701       C  0.41987748  0.60895740  0.71853550    -0.01710
C1702       C  0.39954502  0.58592899  0.72284014     0.03270
C1703       C  0.32238083  0.62146432  0.74543628     0.37920
C1704       C  0.45278866  0.60279193  0.71002567     0.37910
C1705       C  0.41198632  0.55787988  0.71819770     0.36330
C1706       C  0.36078896  0.66765139  0.73536410     0.36330
N1707       N  0.42183841  0.53552776  0.71448261    -0.38490
N1708       N  0.34885798  0.68936755  0.73850978    -0.38490
N1709       N  0.47879180  0.59626377  0.70348326    -0.37930
N1710       N  0.29583905  0.62510762  0.75232443    -0.37940
C1711       C  0.09268406  0.87638527  0.73514551    -0.04600
C1712       C  0.07778428  0.89633235  0.71396819    -0.01720
C1713       C  0.09346742  0.92189051  0.70914633     0.03270
C1714       C  0.12351109  0.92891965  0.72655735    -0.04600
C1715       C  0.13801581  0.90941011  0.74823962    -0.01710
C1716       C  0.12298823  0.88338781  0.75220511     0.03270
C1717       C  0.04601369  0.89080821  0.69709277     0.37920
C1718       C  0.16905184  0.91585315  0.76603871     0.37910
C1719       C  0.13850300  0.86415527  0.77472578     0.36330
C1720       C  0.07841280  0.94120510  0.68626747     0.36330
N1721       N  0.15133722  0.84919100  0.79298553    -0.38490
N1722       N  0.06648998  0.95659855  0.66793424    -0.38490
N1723       N  0.19378560  0.92109992  0.78025046    -0.37930
N1724       N  0.02043233  0.88674235  0.68384438    -0.37940
C1725       C  0.24797358  0.89903475  0.63863302    -0.04600
C1726       C  0.27043349  0.89745360  0.61585362    -0.01720
C1727       C  0.26304856  0.88132007  0.58885157     0.03270
C1728       C  0.23824963  0.86074575  0.58769958    -0.04600
C1729       C  0.21887450  0.85935672  0.61327800    -0.01710
C1730       C  0.22253003  0.87948025  0.63766960     0.03270
C1731       C  0.30098002  0.91272878  0.61941757     0.37920
C1732       C  0.19520845  0.83762024  0.61501918     0.37910
C1733       C  0.20110489  0.87934051  0.66266998     0.36330
C1734       C  0.27928750  0.88833971  0.56152910     0.36330
N1735       N  0.18419678  0.87917287  0.68275083    -0.38490
N1736       N  0.29183392  0.89416837  0.53962080    -0.38490
N1737       N  0.17622692  0.82040204  0.61718391    -0.37930
N1738       N  0.32554998  0.92458714  0.62200721    -0.37940
C1739       C  0.25357556  0.62410819  0.82346140    -0.04600
C1740       C  0.28350275  0.62398107  0.84423836    -0.01720
C1741       C  0.29208420  0.64699027  0.86401467     0.03270
C1742       C  0.27077111  0.67011668  0.86485974    -0.04600
C1743       C  0.24265875  0.67146685  0.84291364    -0.01710
C1744       C  0.23411617  0.64887332  0.82227785     0.03270
C1745       C  0.30571007  0.60001365  0.84691313     0.37920
C1746       C  0.22377047  0.69715368  0.84035067     0.37910
C1747       C  0.20579182  0.65179586  0.79942456     0.36330
C1748       C  0.32295408  0.64670492  0.88397323     0.36330
N1749       N  0.18322725  0.65464392  0.78116596    -0.38490
N1750       N  0.34779975  0.64650198  0.89950335    -0.38490
N1751       N  0.20967117  0.71814738  0.83790032    -0.37930
N1752       N  0.32373943  0.58113784  0.84956257    -0.37940
C1753       C  0.14841393  0.73535969  0.87584984    -0.04600
C1754       C  0.13554455  0.71043133  0.86267768    -0.01720
C1755       C  0.12558964  0.70835366  0.83045890     0.03270
C1756       C  0.12771705  0.73145114  0.81057763    -0.04600
C1757       C  0.14459331  0.75509319  0.82326365    -0.01710
C1758       C  0.15407034  0.75733553  0.85575683     0.03270
C1759       C  0.13326681  0.68635157  0.88220105     0.37920
C1760       C  0.15658312  0.77532591  0.80289228     0.37910
C1761       C  0.17325620  0.78085247  0.86776880     0.36330
C1762       C  0.11545664  0.68146281  0.81783493     0.36330
N1763       N  0.18915104  0.79935679  0.87703306    -0.38490
N1764       N  0.10785951  0.65979785  0.80813331    -0.38490
N1765       N  0.16755441  0.79105594  0.78692425    -0.37930
N1766       N  0.13155155  0.66713403  0.89768867    -0.37940
C1767       C  0.38339515  0.78068057  0.64696589    -0.04600
C1768       C  0.38977275  0.75951350  0.62521049    -0.01720
C1769       C  0.38010292  0.76286812  0.59277980     0.03270
C1770       C  0.36337119  0.78748038  0.58118837    -0.04600
C1771       C  0.35903716  0.80923607  0.60330948    -0.01710
C1772       C  0.36769053  0.80537142  0.63565481     0.03270
C1773       C  0.40843325  0.73487885  0.63579243     0.37920
C1774       C  0.35080952  0.83724753  0.59332934     0.37910
C1775       C  0.36138273  0.82760350  0.65754355     0.36330
C1776       C  0.39089338  0.74183502  0.57152128     0.36330
N1777       N  0.35637001  0.84531548  0.67494461    -0.38490
N1778       N  0.40088368  0.72494386  0.55540437    -0.38490
N1779       N  0.34556881  0.86009799  0.58637465    -0.37930
N1780       N  0.42340940  0.71523671  0.64404403    -0.37940
C1781       C  0.39753671  0.61094378  0.52747698    -0.04600
C1782       C  0.37396291  0.61548889  0.00102401    -0.01720
C1783       C  0.34864531  0.63589668  0.00194366     0.03270
C1784       C  0.34702093  0.65313937  0.52829925    -0.04600
C1785       C  0.36807196  0.64712435  0.55549828    -0.01710
C1786       C  0.39221112  0.62534538  0.55539569     0.03270
C1787       C  0.37415495  0.59883001  0.97269707     0.37920
C1788       C  0.36500322  0.66353813  0.58348242     0.37910
C1789       C  0.41098839  0.61726889  0.58407679     0.36330
C1790       C  0.32424525  0.63954776  0.97533054     0.36330
N1791       N  0.42523766  0.60977876  0.60701336    -0.38490
N1792       N  0.30432259  0.64232394  0.95451870    -0.38490
N1793       N  0.36241764  0.67667259  0.60580683    -0.37930
N1794       N  0.37369173  0.58569342  0.94997495    -0.37940
C1795       C  0.15942878  0.87636443  0.93014222    -0.04600
C1796       C  0.13349489  0.87793636  0.90573368    -0.01720
C1797       C  0.10580920  0.89620441  0.90780694     0.03270
C1798       C  0.10238061  0.91195123  0.93524982    -0.04600
C1799       C  0.13000669  0.91209731  0.95853940    -0.01710
C1800       C  0.15813180  0.89462918  0.95579564     0.03270
C1801       C  0.13435739  0.85947482  0.87908351     0.37920
C1802       C  0.12998644  0.92933935  0.98633043     0.37910
C1803       C  0.18467348  0.89382578  0.98090337     0.36330
C1804       C  0.08013671  0.89783558  0.88212777     0.36330
N1805       N  0.20570583  0.89317994  0.00099286    -0.38490
N1806       N  0.05981707  0.89938810  0.86147216    -0.38490
N1807       N  0.13065059  0.94201089  0.00936727    -0.37930
N1808       N  0.13472180  0.84454322  0.85790689    -0.37940
C1809       C  0.14044252  0.50340806  0.91972106    -0.04600
C1810       C  0.13034248  0.48802491  0.89209961    -0.01720
C1811       C  0.15279681  0.98097679  0.87002553     0.03270
C1812       C  0.18418708  0.99329062  0.87123970    -0.04600
C1813       C  0.19496110  0.50825153  0.89885760    -0.01710
C1814       C  0.17368136  0.51233272  0.92336735     0.03270
C1815       C  0.09585534  0.48215553  0.88343281     0.37920
C1816       C  0.22719586  0.52062176  0.90149630     0.37910
C1817       C  0.18515588  0.52769912  0.95125697     0.36330
C1818       C  0.14263944  0.96156307  0.84497638     0.36330
N1819       N  0.19430738  0.53994666  0.97359663    -0.38490
N1820       N  0.13423582  0.94610638  0.82515776    -0.38490
N1821       N  0.25297278  0.53054130  0.90360189    -0.37930
N1822       N  0.06851919  0.47856842  0.87451044    -0.37940
C1823       C  0.34044126  0.00983451  0.53725453    -0.04600
C1824       C  0.32661912  0.53678161  0.54083823    -0.01720
C1825       C  0.30761712  0.54328702  0.56613037     0.03270
C1826       C  0.29580813  0.52197142  0.58387559    -0.04600
C1827       C  0.30240695  0.99441742  0.57461596    -0.01710
C1828       C  0.32684503  0.98832058  0.55379867     0.03270
C1829       C  0.32553612  0.55594908  0.51556799     0.37920
C1830       C  0.28095853  0.97320618  0.58376017     0.37910
C1831       C  0.33720493  0.95990438  0.54866326     0.36330
C1832       C  0.29956029  0.57189373  0.57328948     0.36330
N1833       N  0.34589737  0.93729214  0.54451052    -0.38490
N1834       N  0.29332862  0.59477771  0.57909557    -0.38490
N1835       N  0.26151488  0.95760276  0.58996089    -0.37930
N1836       N  0.32089988  0.57065658  0.49465052    -0.37940
C1837       C  0.00445913  0.84922826  0.61307625    -0.04600
C1838       C  0.47545495  0.85660307  0.59405460    -0.01720
C1839       C  0.47330950  0.88143803  0.57673576     0.03270
C1840       C  0.00071609  0.89900233  0.57732196    -0.04600
C1841       C  0.03073596  0.89050780  0.59447715    -0.01710
C1842       C  0.03258940  0.86579406  0.61217582     0.03270
C1843       C  0.44852022  0.83742488  0.59078011     0.37920
C1844       C  0.05953042  0.90779015  0.59514017     0.37910
C1845       C  0.06324889  0.85795490  0.63016990     0.36330
C1846       C  0.44313390  0.88838197  0.55748541     0.36330
N1847       N  0.08776111  0.85173621  0.64448329    -0.38490
N1848       N  0.41904775  0.89384167  0.54208515    -0.38490
N1849       N  0.08254661  0.92154193  0.59570714    -0.37930
N1850       N  0.42775295  0.82139203  0.58773006    -0.37940
C1851       C  0.49555859  0.66002630  0.84609281    -0.04600
C1852       C  0.46855116  0.64187333  0.84264796    -0.01720
C1853       C  0.46727227  0.61900367  0.86285600     0.03270
C1854       C  0.49337546  0.61359128  0.88629468    -0.04600
C1855       C  0.51937793  0.63267685  0.89081000    -0.01710
C1856       C  0.51986529  0.65611574  0.87136297     0.03270
C1857       C  0.44209622  0.64656297  0.81819814     0.37920
C1858       C  0.04516424  0.62865611  0.91607097     0.37910
C1859       C  0.04354411  0.67773552  0.87883911     0.36330
C1860       C  0.43940544  0.60060637  0.85896754     0.36330
N1861       N  0.06114945  0.69592724  0.88496602    -0.38490
N1862       N  0.41710442  0.58598661  0.85598294    -0.38490
N1863       N  0.06573160  0.62546746  0.93626177    -0.37930
N1864       N  0.42075604  0.65038657  0.79890455    -0.37940
C1865       C  0.15913394  0.61149850  0.67133047    -0.04600
C1866       C  0.17773774  0.62706509  0.65297125    -0.01720
C1867       C  0.16135046  0.64456033  0.63063084     0.03270
C1868       C  0.12543120  0.64669786  0.62765234    -0.04600
C1869       C  0.11075570  0.63884831  0.65469241    -0.01710
C1870       C  0.12650117  0.61916271  0.67480516     0.03270
C1871       C  0.21349548  0.62286382  0.65518596     0.37920
C1872       C  0.08477467  0.65470893  0.66700568     0.37910
C1873       C  0.10910422  0.60694806  0.69894847     0.36330
C1874       C  0.18288779  0.65670550  0.60979873     0.35830
N1875       N  0.09528905  0.59738435  0.71831026    -0.38490
N1876       N  0.20229396  0.66482704  0.59442437    -0.38490
N1877       N  0.06513583  0.66602516  0.68027283    -0.37930
N1878       N  0.24183572  0.61945220  0.65678798    -0.37940
C1879       C  0.06736242  0.66222435  0.59462706    -0.04600
C1880       C  0.05384073  0.68659505  0.57751303    -0.01720
C1881       C  0.02424553  0.69900620  0.58523610     0.03270
C1882       C  0.00999553  0.68876241  0.61023175    -0.04600
C1883       C  0.01381317  0.66019886  0.61568133    -0.01710
C1884       C  0.04327980  0.64674186  0.60871800     0.03270
C1885       C  0.06784192  0.69933255  0.55155485     0.37920
C1886       C  0.99086081  0.64654183  0.63368850     0.37910
C1887       C  0.04893410  0.61827607  0.61861738     0.36330
C1888       C  0.01043147  0.72416515  0.57069621     0.36330
N1889       N  0.05254398  0.59587498  0.62774835    -0.38490
N1890       N  0.99929756  0.74422783  0.55922763    -0.38490
N1891       N  0.97289354  0.63584190  0.64865025    -0.37930
N1892       N  0.07758395  0.71028621  0.53065016    -0.37940
C1893       C  0.16661099  0.71333669  0.56401246    -0.04600
C1894       C  0.15388187  0.69372739  0.54173879    -0.01720
C1895       C  0.13659531  0.67170150  0.55145065     0.03270
C1896       C  0.12295175  0.67422250  0.58058008    -0.04600
C1897       C  0.12788950  0.69964051  0.59852285    -0.01710
C1898       C  0.15183131  0.71793330  0.59125237     0.03270
C1899       C  0.15857831  0.69540158  0.00891928     0.37920
C1900       C  0.11155549  0.70602530  0.62629999     0.37910
C1901       C  0.16250074  0.74042790  0.61239976     0.36330
C1902       C  0.13626821  0.64705128  0.53166299     0.36330
N1903       N  0.17104693  0.75815027  0.62945695    -0.38490
N1904       N  0.13721432  0.62795990  0.51515898    -0.38490
N1905       N  0.09977001  0.71235655  0.64874401    -0.37930
N1906       N  0.16062575  0.69506990  0.98240281    -0.37940
C1907       C  0.10361073  0.62298236  0.57644110    -0.04600
C1908       C  0.07753579  0.61685683  0.55286621    -0.01720
C1909       C  0.06624684  0.58974789  0.54951045     0.03270
C1910       C  0.07944480  0.56953826  0.57066081    -0.04600
C1911       C  0.10972314  0.57375894  0.58779396    -0.01710
C1912       C  0.12377420  0.59984861  0.58715777     0.03270
C1913       C  0.06292261  0.63723269  0.53102797     0.37920
C1914       C  0.12735134  0.55062004  0.60333406     0.37910
C1915       C  0.15898271  0.59992087  0.58508978     0.36330
C1916       C  0.04226198  0.58247516  0.52363950     0.36330
N1917       N  0.18701857  0.59866178  0.58249666    -0.38490
N1918       N  0.52387488  0.57681520  0.50247168    -0.38490
N1919       N  0.14048180  0.53147312  0.61515230    -0.37930
N1920       N  0.05055062  0.65174298  0.51198750    -0.37940
C1921       C  0.40446120  0.94615751  0.89406201    -0.04600
C1922       C  0.41235085  0.92253126  0.91247471    -0.01720
C1923       C  0.40005035  0.89671480  0.90166460     0.03270
C1924       C  0.38181843  0.89562330  0.87208700    -0.04600
C1925       C  0.36362979  0.92041364  0.86353256    -0.01710
C1926       C  0.37746812  0.94583519  0.87164603     0.03270
C1927       C  0.43460158  0.92452203  0.94080056     0.37920
C1928       C  0.32903900  0.91982906  0.85232668     0.37910
C1929       C  0.36459970  0.97102892  0.85653659     0.36330
C1930       C  0.40732227  0.87228234  0.92025039     0.36330
N1931       N  0.35450361  0.99108735  0.84431295    -0.38490
N1932       N  0.41335558  0.85370108  0.93661443    -0.38490
N1933       N  0.30086798  0.91862693  0.84570341    -0.37930
N1934       N  0.95241178  0.92621846  0.96332748    -0.37940
C1935       C  0.35805622  0.84864465  0.86426643    -0.04600
C1936       C  0.32475691  0.85621996  0.86658929    -0.01720
C1937       C  0.30058081  0.83732075  0.85606223     0.03270
C1938       C  0.30855470  0.80916383  0.86078674    -0.04600
C1939       C  0.34164688  0.80057292  0.85967039    -0.01710
C1940       C  0.36622418  0.82005335  0.86715821     0.03270
C1941       C  0.31734199  0.87426171  0.89218854     0.37920
C1942       C  0.35019977  0.77136027  0.85690829     0.37910
C1943       C  0.39605007  0.81084375  0.88546426     0.36330
C1944       C  0.26652046  0.84652009  0.84959263     0.36330
N1945       N  0.41931940  0.80255628  0.90030149    -0.38490
N1946       N  0.23934754  0.85395233  0.84446678    -0.38490
N1947       N  0.35693255  0.74803258  0.85487796    -0.37930
N1948       N  0.31144311  0.88832858  0.91298326    -0.37940
C1949       C  0.32626035  0.91385575  0.77961002    -0.04600
C1950       C  0.36010585  0.91962370  0.78448167    -0.01720
C1951       C  0.38064662  0.90152146  0.80259572     0.03270
C1952       C  0.36598719  0.87924118  0.81716935    -0.04600
C1953       C  0.33633483  0.86883825  0.80142207    -0.01710
C1954       C  0.31492821  0.88734066  0.78467581     0.03270
C1955       C  0.37308627  0.94521530  0.77358003     0.37920
C1956       C  0.33104785  0.83943768  0.79671745     0.37910
C1957       C  0.28148216  0.87958675  0.77387121     0.36330
C1958       C  0.41546360  0.90754553  0.80789218     0.36330
N1959       N  0.25475775  0.87338132  0.76541376    -0.38490
N1960       N  0.44310878  0.91311052  0.81027008    -0.38490
N1961       N  0.32670495  0.81615598  0.79134112    -0.37930
N1962       N  0.38333175  0.96559170  0.76487646    -0.37940
C1963       C  0.41422436  0.85567318  0.84339981    -0.04600
C1964       C  0.44600762  0.85882225  0.86027468    -0.01720
C1965       C  0.46981795  0.83707792  0.85922379     0.03270
C1966       C  0.46145604  0.81251440  0.84264510    -0.04600
C1967       C  0.42888258  0.80986254  0.82843775    -0.01710
C1968       C  0.41161417  0.83376476  0.82135319     0.03270
C1969       C  0.45823848  0.88538927  0.87107091     0.37920
C1970       C  0.41429568  0.78427368  0.81604855     0.37910
C1971       C  0.40354222  0.83856542  0.78831583     0.36330
C1972       C  0.50342130  0.84032928  0.87329498     0.36330
N1973       N  0.39768197  0.84204999  0.76182808    -0.38490
N1974       N  0.53021772  0.84278610  0.88450408    -0.38490
N1975       N  0.40255134  0.76408904  0.80575174    -0.37930
N1976       N  0.47061166  0.90596553  0.87904290    -0.37940
C1977       C  0.88069046  0.36970769  0.35005740    -0.01750
C1978       C  0.60451113  0.15131762  0.09470849    -0.01750
C1979       C  0.56943183  0.42586759  0.44092632     0.43190
N1980       N  0.53456999  0.46124016  0.44061019     0.02080
C1981       C  0.52857172  0.04109405  0.07214084    -0.05790
H1982       H  0.95431238  0.45155382  0.07346583     0.07580
C1983       C  0.87989724  0.51550465  0.48970150    -0.06140
Co1984     Co  0.54384304  0.48197062  0.50469604     0.74180
N1985       N  0.98690995  0.46888222  0.04228940    -0.25320
Co1986     Co  0.97170997  0.51093793  0.03486491     0.74070
C1987       C  0.87090152  0.50447171  0.51969480     0.43300
N1988       N  0.94255374  0.50358720  0.42768961     0.01700
N1989       N  0.92417757  0.50140898  0.01691622     0.01800
N1990       N  0.57320103  0.02339859  0.05092770    -0.46170
H1991       H  0.56945561  0.42176758  0.49344401     0.07560
N1992       N  0.51400205  0.45877477  0.03118269     0.02090
N1993       N  0.95569651  0.05349667  0.02624489     0.01830
C1994       C  0.92839446  0.09300733  0.02482471     0.43430
N1995       N  0.96890685  0.49200070  0.41670298    -0.24780
C1996       C  0.60899389  0.00183123  0.47295025    -0.05700
N1997       N  0.55301630  0.44573004  0.42273628    -0.45880
N1998       N  0.93920511  0.07120682  0.04353277    -0.46110
C1999       C  0.61494095  0.01283602  0.44177251     0.43210
N2000       N  0.54600344  0.01116050  0.03971075     0.02080
N2001       N  0.00224652  0.04483560  0.42329423    -0.24800
N2002       N  0.53983540  0.45317796  0.46972773    -0.25290
N2003       N  0.97593652  0.05608027  0.43438364     0.01720
H2004       H  0.03621064  0.06012164  0.39221808     0.07610
H2005       H  0.93471133  0.09773977  0.47323366     0.07640
N2006       N  0.51935297  0.02154044  0.05128651    -0.25340
N2007       N  0.91324664  0.51270139  0.49001860    -0.24950
N2008       N  0.56282171  0.01509851  0.44924709     0.02080
C2009       C  0.49860426  0.42540483  0.05892297     0.43480
C2010       C  0.95919534  0.47139995  0.39748916    -0.06210
N2011       N  0.95343674  0.06184730  0.49722144    -0.24950
H2012       H  0.86432424  0.52701989  0.47249964     0.07630
N2013       N  0.52175000  0.43324983  0.04070374    -0.46180
H2014       H  0.97541009  0.45752034  0.38606042     0.07610
C2015       C  0.99342065  0.08816808  0.40603957     0.43310
C2016       C  0.55841903  0.43007530  0.47169604    -0.05700
Co2017     Co  0.51662640  0.00338499  0.43201250     0.73820
N2018       N  0.91496209  0.49119028  0.41783736    -0.45890
C2019       C  0.56406718  0.04288024  0.07100959     0.43580
N2020       N  0.58468072  0.02091397  0.42965027    -0.45880
Co2021     Co  0.94637201  0.03353172  0.46180250     0.73890
C2022       C  0.94100956  0.08741516  0.49504229    -0.06210
C2023       C  0.97527455  0.44910903  0.06001776    -0.05770
N2024       N  0.57584324  0.00393686  0.47551380    -0.25300
N2025       N  0.90019735  0.49667760  0.03492272    -0.46060
H2026       H  0.01201587  0.05474088  0.08362963     0.07590
C2027       C  0.01513154  0.06362104  0.40529277    -0.06190
Cl2028     Cl  0.99458942  0.00733076  0.48335179    -0.49190
C2029       C  0.92365450  0.47091449  0.39859944     0.43340
H2030       H  0.62639565  0.99059814  0.48862871     0.07550
N2031       N  0.96947751  0.08168423  0.42419032    -0.45900
C2032       C  0.85054685  0.29038125  0.04669303     0.43190
N2033       N  0.82943500  0.27662192  0.50050421     0.02080
C2034       C  0.67162515  0.32534068  0.44342159    -0.05790
H2035       H  0.68652399  0.31565213  0.05734607     0.07580
C2036       C  0.72022536  0.21278740  0.04215144    -0.06140
Co2037     Co  0.77071359  0.31397638  0.47823259     0.74180
N2038       N  0.72047255  0.30941384  0.02235562    -0.25320
Co2039     Co  0.70118231  0.28099734  0.48773785     0.74070
C2040       C  0.69592764  0.22793874  0.05886330     0.43300
N2041       N  0.78685162  0.20435210  0.50247044     0.01700
N2042       N  0.70533663  0.25096509  0.01971420     0.01800
N2043       N  0.71608797  0.35175846  0.44040137    -0.46170
H2044       H  0.81698406  0.32936782  0.04281138     0.07560
N2045       N  0.74852812  0.32105950  0.01820527     0.02090
N2046       N  0.68393939  0.25307938  0.45272645     0.01830
C2047       C  0.66136804  0.23613336  0.40947715     0.43430
N2048       N  0.81366332  0.21746169  0.49712957    -0.24780
C2049       C  0.78097825  0.31560283  0.41083599    -0.05700
N2050       N  0.85044662  0.26970207  0.02494207    -0.45880
N2051       N  0.66178219  0.25853811  0.42875685    -0.46110
C2052       C  0.79345413  0.29747301  0.38710213     0.43210
N2053       N  0.72488064  0.32731540  0.45322519     0.02080
N2054       N  0.79090791  0.22012812  0.43063582    -0.24800
N2055       N  0.81438942  0.30063113  0.50489141    -0.25290
N2056       N  0.76372303  0.20765579  0.43629217     0.01720
H2057       H  0.82168429  0.21542933  0.39241252     0.07610
H2058       H  0.69388900  0.19716257  0.41387128     0.07640
N2059       N  0.69882499  0.31234349  0.45618470    -0.25340
N2060       N  0.72201152  0.22760466  0.51678180    -0.24950
N2061       N  0.80482411  0.27983262  0.43253202     0.02080
C2062       C  0.73512457  0.34064510  0.06049395     0.43480
C2063       C  0.84008011  0.20369091  0.51042051    -0.06210
N2064       N  0.69907807  0.22888484  0.44958645    -0.24950
H2065       H  0.72910735  0.19159501  0.04502155     0.07630
N2066       N  0.75776872  0.33938582  0.03988196    -0.46180
H2067       H  0.86525371  0.20778036  0.50633994     0.07610
C2068       C  0.77405111  0.18994517  0.39212237     0.43310
C2069       C  0.82670269  0.31103610  0.03258120    -0.05700
Co2070     Co  0.81117472  0.24902167  0.46492085     0.73820
N2071       N  0.79391808  0.18102774  0.51808838    -0.45890
C2072       C  0.68267502  0.35157212  0.43251941     0.43580
N2073       N  0.80732753  0.27545111  0.40265327    -0.45880
Co2074     Co  0.74207060  0.21644947  0.47679917     0.73890
C2075       C  0.68576655  0.21658032  0.42347700    -0.06210
C2076       C  0.70971624  0.32041916  0.04869309    -0.05770
N2077       N  0.78958977  0.30350389  0.43777553    -0.25300
N2078       N  0.69016498  0.25235262  0.04509499    -0.46060
H2079       H  0.64667362  0.31931204  0.44623147     0.07590
C2080       C  0.79990713  0.20988194  0.40316956    -0.06190
Cl2081     Cl  0.75633044  0.26512232  0.47689259    -0.49190
C2082       C  0.82726996  0.17964320  0.02512870     0.43340
H2083       H  0.76617919  0.33438194  0.40819214     0.07550
N2084       N  0.75324076  0.18954401  0.41442386    -0.45900
C2085       C  0.61047489  0.23070936  0.27781906     0.43190
N2086       N  0.56819611  0.22163243  0.24480190     0.02080
C2087       C  0.98200153  0.32772013  0.16200193    -0.05790
H2088       H  0.52444412  0.36161563  0.25301821     0.07580
C2089       C  0.98033308  0.27116773  0.31554634    -0.06140
Co2090     Co  0.55036336  0.27004742  0.20164926     0.74180
N2091       N  0.53405012  0.31922556  0.23969811    -0.25320
Co2092     Co  0.98628675  0.30364917  0.22886456     0.74070
C2093       C  0.98665021  0.29955308  0.32512785     0.43300
N2094       N  0.98608940  0.21310778  0.28776037     0.01700
N2095       N  0.98151941  0.29645962  0.27508874     0.01800
N2096       N  0.52687838  0.30687189  0.14429863    -0.46170
H2097       H  0.61686747  0.27245638  0.25307928     0.07560
N2098       N  0.55981887  0.30670507  0.22891293     0.02090
N2099       N  0.93953934  0.28899590  0.21509682     0.01830
C2100       C  0.89916633  0.28019023  0.18007483     0.43430
N2101       N  0.01269102  0.20092893  0.27845512    -0.24780
C2102       C  0.52827376  0.23336259  0.14325315    -0.05700
N2103       N  0.58617933  0.21267939  0.26989573    -0.45880
N2104       N  0.92228246  0.29869254  0.18984170    -0.46110
C2105       C  0.51037290  0.20716215  0.13776484     0.43210
N2106       N  0.52006389  0.29602803  0.17114785     0.02080
N2107       N  0.97383140  0.19035202  0.22106131    -0.24800
N2108       N  0.57869957  0.24534725  0.23484542    -0.25290
N2109       N  0.94787501  0.20417340  0.22917881     0.01720
H2110       H  0.98310407  0.14789406  0.21112849     0.07610
H2111       H  0.89236394  0.23727681  0.20112489     0.07640
N2112       N  0.99454429  0.30857340  0.18229054    -0.25340
N2113       N  0.97328855  0.27205676  0.28468409    -0.24950
N2114       N  0.52491595  0.21268608  0.18645525     0.02080
C2115       C  0.57609609  0.34891825  0.24015983     0.43480
C2116       C  0.52321937  0.18116576  0.29896963    -0.06210
N2117       N  0.92950700  0.26451758  0.22326081    -0.24950
H2118       H  0.97569253  0.25394069  0.33011962     0.07630
N2119       N  0.58499934  0.32393827  0.22796854    -0.46180
H2120       H  0.54147496  0.16524981  0.29516354     0.07610
C2121       C  0.92983959  0.16222450  0.21983017     0.43310
C2122       C  0.60530666  0.25264925  0.25405999    -0.05700
Co2123     Co  0.52148459  0.20622297  0.23213586     0.73820
N2124       N  0.97686502  0.20198860  0.31353117    -0.45890
C2125       C  0.50326544  0.32661282  0.13662203     0.43580
N2126       N  0.50921974  0.19624310  0.16580791    -0.45880
Co2127     Co  0.95766800  0.23938766  0.25648692     0.73890
C2128       C  0.90393325  0.25729392  0.20246080    -0.06210
C2129       C  0.54199879  0.34553220  0.24764900    -0.05770
N2130       N  0.53594077  0.23519615  0.17425917    -0.25300
N2131       N  0.99106864  0.31309644  0.29860607    -0.46060
H2132       H  0.96319586  0.34303479  0.16641550     0.07590
C2133       C  0.96513693  0.16403087  0.21447204    -0.06190
Cl2134     Cl  0.00404908  0.25485686  0.22977995    -0.49190
C2135       C  0.99965588  0.18214544  0.32261856     0.43340
H2136       H  0.53215708  0.24942416  0.12687400     0.07550
N2137       N  0.92174146  0.18822452  0.22941238    -0.45900
C2138       C  0.70039003  0.49485616  0.34080927     0.43190
N2139       N  0.73338374  0.50336689  0.30499938     0.02080
C2140       C  0.68535096  0.06315395  0.16422776    -0.05790
H2141       H  0.66040322  0.44932072  0.17309492     0.07580
C2142       C  0.77660603  0.43703839  0.17645643    -0.06140
Co2143     Co  0.69263549  0.02859546  0.25144447     0.74180
N2144       N  0.67504762  0.48529814  0.20120899    -0.25320
Co2145     Co  0.71158773  0.50358720  0.17678904     0.74070
C2146       C  0.74797109  0.42356264  0.15998655     0.43300
N2147       N  0.79935448  0.47291016  0.24381641     0.01700
N2148       N  0.73478180  0.46529268  0.17280220     0.01800
N2149       N  0.67160152  0.07662506  0.21201416    -0.46170
H2150       H  0.65511213  0.50596475  0.30741862     0.07560
N2151       N  0.66816652  0.49380522  0.22924098     0.02090
N2152       N  0.75017370  0.02014790  0.15179944     0.01830
C2153       C  0.78189172  0.02791404  0.11471092     0.43430
N2154       N  0.79165099  0.48052647  0.27166908    -0.24780
C2155       C  0.71307299  0.08854359  0.28555236    -0.05700
N2156       N  0.73288300  0.49729200  0.33528976    -0.45880
N2157       N  0.74994141  0.02452597  0.12117796    -0.46110
C2158       C  0.74441721  0.09879146  0.30290115     0.43210
N2159       N  0.68303261  0.05094286  0.21178689     0.02080
N2160       N  0.80975923  0.03741211  0.25620634    -0.24800
N2161       N  0.70316241  0.50658041  0.29148940    -0.25290
N2162       N  0.81634905  0.02931008  0.22803185     0.01720
H2163       H  0.82736208  0.07174460  0.28561484     0.07610
H2164       H  0.82821465  0.01929592  0.14757496     0.07640
N2165       N  0.69086601  0.04235789  0.18409915    -0.25340
N2166       N  0.76607157  0.46271891  0.18337694    -0.24950
N2167       N  0.75121666  0.05739307  0.28450205     0.02080
C2168       C  0.64057601  0.45579398  0.22070309     0.43480
C2169       C  0.79416388  0.45839776  0.28973437    -0.06210
N2170       N  0.78069620  0.01842177  0.16509614    -0.24950
H2171       H  0.80149539  0.42901772  0.18155152     0.07630
N2172       N  0.64829206  0.47638799  0.24189006    -0.46180
H2173       H  0.78777760  0.45838859  0.31332973     0.07610
C2174       C  0.84674333  0.06513290  0.23776414     0.43310
C2175       C  0.68127156  0.50135525  0.31154122    -0.05700
Co2176     Co  0.77251901  0.01925579  0.28000489     0.73820
N2177       N  0.80666187  0.44645480  0.24158559    -0.45890
C2178       C  0.67253529  0.08534191  0.18291972     0.43580
N2179       N  0.76595280  0.07774787  0.30051838    -0.45880
Co2180     Co  0.79145794  0.49618885  0.20541670     0.73890
C2181       C  0.80193656  0.02353905  0.14411907    -0.06210
C2182       C  0.65842847  0.46183599  0.19383509    -0.05770
N2183       N  0.72000805  0.06251920  0.27486772    -0.25300
N2184       N  0.72312890  0.44268589  0.15819015    -0.46060
H2185       H  0.69054539  0.06296351  0.14012100     0.07590
C2186       C  0.82799889  0.05983417  0.26430946    -0.06190
Cl2187     Cl  0.74199534  0.51212676  0.22836099    -0.49190
C2188       C  0.80370647  0.43572556  0.26936584     0.43340
H2189       H  0.68886981  0.09829161  0.28313552     0.07550
N2190       N  0.83816190  0.04526284  0.21621662    -0.45900
C2191       C  0.86765543  0.08972750  0.23251914    -0.04600
C2192       C  0.85570221  0.11703806  0.23676461    -0.01720
C2193       C  0.87535559  0.14024286  0.23163906     0.03270
C2194       C  0.90829122  0.13681923  0.22299956    -0.04600
C2195       C  0.91987854  0.10895474  0.21854088    -0.01710
C2196       C  0.89954551  0.08592652  0.22284545     0.03270
C2197       C  0.82238591  0.12146283  0.24545122     0.37920
C2198       C  0.95278747  0.10278927  0.21002514     0.37910
C2199       C  0.91198484  0.05787744  0.21819907     0.36330
C2200       C  0.86079706  0.16764915  0.23538557     0.36330
N2201       N  0.92183537  0.03552531  0.21448089    -0.38490
N2202       N  0.84886823  0.18936533  0.23853690    -0.38490
N2203       N  0.97878882  0.09626144  0.20347763    -0.37930
N2204       N  0.79584479  0.12510697  0.25234068    -0.37940
C2205       C  0.59267848  0.37638898  0.23514362    -0.04600
C2206       C  0.57778066  0.39633467  0.21396356    -0.01720
C2207       C  0.59346298  0.42189352  0.20914297     0.03270
C2208       C  0.62350354  0.42892497  0.22655813    -0.04600
C2209       C  0.63800565  0.40941713  0.24824380    -0.01710
C2210       C  0.62297924  0.38339398  0.25220782     0.03270
C2211       C  0.54601246  0.39080859  0.19708458     0.37920
C2212       C  0.66903791  0.41586271  0.26604809     0.37910
C2213       C  0.63849159  0.36416299  0.27473149     0.36330
C2214       C  0.57841038  0.44120661  0.18626144     0.36330
N2215       N  0.65132376  0.34919985  0.29299357    -0.38490
N2216       N  0.56648909  0.45659885  0.16792612    -0.38490
N2217       N  0.69376870  0.42111142  0.28026396    -0.37930
N2218       N  0.52043275  0.38674128  0.18383365    -0.37940
C2219       C  0.74796998  0.39904630  0.13862336    -0.04600
C2220       C  0.77041696  0.39747961  0.11583198    -0.01720
C2221       C  0.76303084  0.38134349  0.08883207     0.03270
C2222       C  0.73824870  0.36075601  0.08769188    -0.04600
C2223       C  0.71888791  0.35935588  0.11327924    -0.01710
C2224       C  0.72254091  0.37947953  0.13767059     0.03270
C2225       C  0.80095355  0.41276858  0.11938525     0.37920
C2226       C  0.69524136  0.33760605  0.11503070     0.37910
C2227       C  0.70113037  0.37932680  0.16268199     0.36330
C2228       C  0.77925080  0.38837028  0.06150083     0.36330
N2229       N  0.68423417  0.37914883  0.18277170    -0.38490
N2230       N  0.79178185  0.39420296  0.03958513    -0.38490
N2231       N  0.67627557  0.32037690  0.11720270    -0.37930
N2232       N  0.82551621  0.42463740  0.12196857    -0.37940
C2233       C  0.75357678  0.12411203  0.32345831    -0.04600
C2234       C  0.78350432  0.12398545  0.34423477    -0.01720
C2235       C  0.79208624  0.14699539  0.36400966     0.03270
C2236       C  0.77077345  0.17012205  0.36485344    -0.04600
C2237       C  0.74266105  0.17147182  0.34290745    -0.01710
C2238       C  0.73411809  0.14887758  0.32227299     0.03270
C2239       C  0.80571141  0.10001794  0.34691074     0.37920
C2240       C  0.72377225  0.19715846  0.34034411     0.37910
C2241       C  0.70579394  0.15179979  0.29941944     0.36330
C2242       C  0.82295568  0.14671019  0.38396895     0.36330
N2243       N  0.68322960  0.15464779  0.28116058    -0.38490
N2244       N  0.84780085  0.14650738  0.39949986    -0.38490
N2245       N  0.70967221  0.21815184  0.33789369    -0.37930
N2246       N  0.82374073  0.08114218  0.34956146    -0.37940
C2247       C  0.64841442  0.23536281  0.37584682    -0.04600
C2248       C  0.63554665  0.21043414  0.36267394    -0.01720
C2249       C  0.62559266  0.20835672  0.33045506     0.03270
C2250       C  0.62771806  0.23145503  0.31057461    -0.04600
C2251       C  0.64459194  0.25509795  0.32326137    -0.01710
C2252       C  0.65406932  0.25733958  0.35575451     0.03270
C2253       C  0.63326863  0.18635402  0.38219675     0.37920
C2254       C  0.65657790  0.27533334  0.30289086     0.37910
C2255       C  0.67325318  0.28085739  0.36776724     0.36330
C2256       C  0.61546203  0.18146556  0.31783015     0.36330
N2257       N  0.68914638  0.29936247  0.37703211    -0.38490
N2258       N  0.60786655  0.15980047  0.30812767    -0.38490
N2259       N  0.66754608  0.29106591  0.28692371    -0.37930
N2260       N  0.63155276  0.16713622  0.39768383    -0.37940
C2261       C  0.88339207  0.28067341  0.14697160    -0.04600
C2262       C  0.88978767  0.25951662  0.12521032    -0.01720
C2263       C  0.88011678  0.26287545  0.09278041     0.03270
C2264       C  0.86336601  0.28748210  0.08119548    -0.04600
C2265       C  0.85900828  0.30922702  0.10332461    -0.01710
C2266       C  0.86766483  0.30535726  0.13566875     0.03270
C2267       C  0.90846608  0.23488912  0.13578655     0.37920
C2268       C  0.85074771  0.33723622  0.09335728     0.37910
C2269       C  0.86133673  0.32757743  0.15756582     0.36330
C2270       C  0.89092299  0.24185364  0.07151629     0.36330
N2271       N  0.85630786  0.34527965  0.17497376    -0.38490
N2272       N  0.90092334  0.22497212  0.05539338    -0.38490
N2273       N  0.84547968  0.36008661  0.08641640    -0.37930
N2274       N  0.92345595  0.21525272  0.14403431    -0.37940
C2275       C  0.89755321  0.11094787  0.02746629    -0.04600
C2276       C  0.87395585  0.11548074  0.50103618    -0.01720
C2277       C  0.84863989  0.13589059  0.50194929     0.03270
C2278       C  0.84703716  0.15314361  0.02830017    -0.04600
C2279       C  0.86809519  0.14712837  0.05549486    -0.01710
C2280       C  0.89223324  0.12534869  0.05538692     0.03270
C2281       C  0.87415249  0.09881871  0.47271201     0.37920
C2282       C  0.86503500  0.16354273  0.08348009     0.37910
C2283       C  0.91101408  0.11726917  0.08406494     0.36330
C2284       C  0.82424456  0.13954088  0.47533231     0.36330
N2285       N  0.92526658  0.10977485  0.10699812    -0.38490
N2286       N  0.80432583  0.14231680  0.45451714    -0.38490
N2287       N  0.86245664  0.17667797  0.10580526    -0.37930
N2288       N  0.87369421  0.08568027  0.44999152    -0.37940
C2289       C  0.65943233  0.37637119  0.43014933    -0.04600
C2290       C  0.63349772  0.37794554  0.40574157    -0.01720
C2291       C  0.60581482  0.39621669  0.40781541     0.03270
C2292       C  0.60238927  0.41196441  0.43525825    -0.04600
C2293       C  0.63001533  0.41210665  0.45854795    -0.01710
C2294       C  0.65813795  0.39463557  0.45580346     0.03270
C2295       C  0.63435619  0.35948318  0.37909171     0.37920
C2296       C  0.62999732  0.42934746  0.48634010     0.37910
C2297       C  0.68467947  0.39382877  0.48091123     0.36330
C2298       C  0.58014144  0.39784979  0.38213718     0.36330
N2299       N  0.70571167  0.39318015  0.50100076    -0.38490
N2300       N  0.55982089  0.39940377  0.36148250    -0.38490
N2301       N  0.63066342  0.44201777  0.50937788    -0.37930
N2302       N  0.63471725  0.34455070  0.35791557    -0.37940
C2303       C  0.64044773  0.00341703  0.41973306    -0.04600
C2304       C  0.63033692  0.98804315  0.39210755    -0.01720
C2305       C  0.65278448  0.48099418  0.37003177     0.03270
C2306       C  0.68417891  0.49330069  0.37124469    -0.04600
C2307       C  0.69496508  0.00824896  0.39886367    -0.01710
C2308       C  0.67369082  0.01233111  0.42337774     0.03270
C2309       C  0.59584583  0.98218789  0.38344152     0.37920
C2310       C  0.72720559  0.02060890  0.40150240     0.37910
C2311       C  0.68517610  0.02768801  0.45127093     0.36330
C2312       C  0.64261816  0.46158447  0.34498125     0.36330
N2313       N  0.69433612  0.03992793  0.47361346    -0.38490
N2314       N  0.63420767  0.44613098  0.32516153    -0.38490
N2315       N  0.75298714  0.03052024  0.40360822    -0.37930
N2316       N  0.56850667  0.97861261  0.37452098    -0.37940
C2317       C  0.84043961  0.50984045  0.03726168    -0.04600
C2318       C  0.82662487  0.03678652  0.04084614    -0.01720
C2319       C  0.80762136  0.04329268  0.06613699     0.03270
C2320       C  0.79580936  0.02197756  0.08388075    -0.04600
C2321       C  0.80238680  0.49442577  0.07460717    -0.01710
C2322       C  0.82682770  0.48832647  0.05379321     0.03270
C2323       C  0.82554948  0.05595620  0.01557873     0.37920
C2324       C  0.78091810  0.47322101  0.08373084     0.37910
C2325       C  0.83717520  0.45990880  0.04864814     0.36330
C2326       C  0.79956545  0.07189965  0.07329599     0.36330
N2327       N  0.84585973  0.43729573  0.04448748    -0.38490
N2328       N  0.79333412  0.09478374  0.07910188    -0.38490
N2329       N  0.76146035  0.45762321  0.08991446    -0.37930
N2330       N  0.82091935  0.07066616  0.99466303    -0.37940
C2331       C  0.50445323  0.34922806  0.11307400    -0.04600
C2332       C  0.97544358  0.35661216  0.09406911    -0.01720
C2333       C  0.97330053  0.38144592  0.07674861     0.03270
C2334       C  0.50071226  0.39900139  0.07731911    -0.04600
C2335       C  0.53073342  0.39050367  0.09446973    -0.01710
C2336       C  0.53258591  0.36579014  0.11216858     0.03270
C2337       C  0.94849819  0.33744434  0.09080945     0.37920
C2338       C  0.55953018  0.40778294  0.09512860     0.37910
C2339       C  0.56324646  0.35794867  0.13015952     0.36330
C2340       C  0.94312148  0.38839550  0.05750612     0.36330
N2341       N  0.58775939  0.35172841  0.14447075    -0.38490
N2342       N  0.91903263  0.39385963  0.04211210    -0.38490
N2343       N  0.58254812  0.42153238  0.09569244    -0.37930
N2344       N  0.92771982  0.32142113  0.08777246    -0.37940
C2345       C  0.99557053  0.16003570  0.34610363    -0.04600
C2346       C  0.96856429  0.14188147  0.34266164    -0.01720
C2347       C  0.96728616  0.11901522  0.36287430     0.03270
C2348       C  0.99338910  0.11360762  0.38631460    -0.04600
C2349       C  0.01939022  0.13269463  0.39082690    -0.01710
C2350       C  0.01987652  0.15613044  0.37137537     0.03270
C2351       C  0.94210985  0.14656627  0.31821005     0.37920
C2352       C  0.54517561  0.12868488  0.41608758     0.37910
C2353       C  0.54355029  0.17775855  0.37884598     0.36330
C2354       C  0.93942057  0.10061643  0.35898889     0.36330
N2355       N  0.56115478  0.19595165  0.38496868    -0.38490
N2356       N  0.91712049  0.08599557  0.35600675    -0.38490
N2357       N  0.56574421  0.12549968  0.43627800    -0.37930
N2358       N  0.92077011  0.15038597  0.29891499    -0.37940
C2359       C  0.65911769  0.11149880  0.17132532    -0.04600
C2360       C  0.67772063  0.12707611  0.15297581    -0.01720
C2361       C  0.66133229  0.14457024  0.13063436     0.03270
C2362       C  0.62541235  0.14669852  0.12764718    -0.04600
C2363       C  0.61073168  0.13883601  0.15467940    -0.01710
C2364       C  0.62647787  0.11914800  0.17478819     0.03270
C2365       C  0.71348033  0.12288640  0.15520013     0.37920
C2366       C  0.58475210  0.15469417  0.16699860     0.37910
C2367       C  0.60907487  0.10691760  0.19891753     0.36330
C2368       C  0.68287122  0.15672286  0.10980913     0.35830
N2369       N  0.59525473  0.09734098  0.21826807    -0.38490
N2370       N  0.70227946  0.16485041  0.09444087    -0.38490
N2371       N  0.56511505  0.16600735  0.18027085    -0.37930
N2372       N  0.74182221  0.11948407  0.15680980    -0.37940
C2373       C  0.56734744  0.16221859  0.09461405    -0.04600
C2374       C  0.55382622  0.18658971  0.07750152    -0.01720
C2375       C  0.52423747  0.19900643  0.08523337     0.03270
C2376       C  0.50999075  0.18876328  0.11023171    -0.04600
C2377       C  0.51380407  0.16019885  0.11567904    -0.01710
C2378       C  0.54326468  0.14673753  0.10870586     0.03270
C2379       C  0.56782267  0.19932196  0.05153758     0.37920
C2380       C  0.49085604  0.14654449  0.13369332     0.37910
C2381       C  0.54891411  0.11826909  0.11859714     0.36330
C2382       C  0.51042675  0.22416816  0.07069753     0.36330
N2383       N  0.55252030  0.09586556  0.12772130    -0.38490
N2384       N  0.49929548  0.24423313  0.05923218    -0.38490
N2385       N  0.47289269  0.13584729  0.14866147    -0.37930
N2386       N  0.57756173  0.21027096  0.03062840    -0.37940
C2387       C  0.66659014  0.21333860  0.06400013    -0.04600
C2388       C  0.65386803  0.19372537  0.04172838    -0.01720
C2389       C  0.63658312  0.17169847  0.05144124     0.03270
C2390       C  0.62293678  0.17421986  0.08056954    -0.04600
C2391       C  0.62786758  0.19964024  0.09850919    -0.01710
C2392       C  0.65180439  0.21793707  0.09123660     0.03270
C2393       C  0.65859424  0.19540601  0.50892731     0.37920
C2394       C  0.61153617  0.20602096  0.12628907     0.37910
C2395       C  0.66246625  0.24043509  0.11238176     0.36330
C2396       C  0.63625936  0.14704732  0.03165535     0.36330
N2397       N  0.67100523  0.25815934  0.12943910    -0.38490
N2398       N  0.63720831  0.12795517  0.01515279    -0.38490
N2399       N  0.59975371  0.21234594  0.14873662    -0.37930
N2400       N  0.66063602  0.19507593  0.48240993    -0.37940
C2401       C  0.60360409  0.12297786  0.07643543    -0.04600
C2402       C  0.57753360  0.11684692  0.05285795    -0.01720
C2403       C  0.56625661  0.08973472  0.04949867     0.03270
C2404       C  0.57945746  0.06952828  0.07065141    -0.04600
C2405       C  0.60973194  0.07375522  0.08778820    -0.01710
C2406       C  0.62377438  0.09984849  0.08715412     0.03270
C2407       C  0.56291274  0.13722021  0.03102056     0.37920
C2408       C  0.62736450  0.05061946  0.10333020     0.37910
C2409       C  0.65898398  0.09993049  0.08509458     0.36330
C2410       C  0.54227970  0.08245568  0.02362352     0.36330
N2411       N  0.68702146  0.09867940  0.08250798    -0.38490
N2412       N  0.02389810  0.07678106  0.00244648    -0.38490
N2413       N  0.64049771  0.03147422  0.11514954    -0.37930
N2414       N  0.55053410  0.15172746  0.01198034    -0.37940
C2415       C  0.90447166  0.44616706  0.39404926    -0.04600
C2416       C  0.91236236  0.42254216  0.41246404    -0.01720
C2417       C  0.90006011  0.39672546  0.40165757     0.03270
C2418       C  0.88182477  0.39563260  0.37208183    -0.04600
C2419       C  0.86363554  0.42042243  0.36352754    -0.01710
C2420       C  0.87747595  0.44584401  0.37163614     0.03270
C2421       C  0.93461472  0.42453445  0.44078872     0.37920
C2422       C  0.82904328  0.41983739  0.35232751     0.37910
C2423       C  0.86460655  0.47103672  0.35652513     0.36330
C2424       C  0.90733206  0.37229452  0.42024583     0.36330
N2425       N  0.85450964  0.49109421  0.34429998    -0.38490
N2426       N  0.91336537  0.35371492  0.43661229    -0.38490
N2427       N  0.80087159  0.41863450  0.34570903    -0.37930
N2428       N  0.45244661  0.42626126  0.46331912    -0.37940
C2429       C  0.85806417  0.34865382  0.36426708    -0.04600
C2430       C  0.82476528  0.35622839  0.36659230    -0.01720
C2431       C  0.80058946  0.33732877  0.35606664     0.03270
C2432       C  0.80856426  0.30917190  0.36079065    -0.04600
C2433       C  0.84165718  0.30058155  0.35967613    -0.01710
C2434       C  0.86623382  0.32006313  0.36716056     0.03270
C2435       C  0.81735194  0.37426966  0.39219246     0.37920
C2436       C  0.85021207  0.27136907  0.35691625     0.37910
C2437       C  0.89606118  0.31085560  0.38546574     0.36330
C2438       C  0.76652901  0.34652790  0.34959705     0.36330
N2439       N  0.91933130  0.30256944  0.40030280    -0.38490
N2440       N  0.73935603  0.35395998  0.34447124    -0.38490
N2441       N  0.85694699  0.24804164  0.35488789    -0.37930
N2442       N  0.81145448  0.38833628  0.41298784    -0.37940
C2443       C  0.82625075  0.41385848  0.27961005    -0.04600
C2444       C  0.86009613  0.41962900  0.28447706    -0.01720
C2445       C  0.88064127  0.40152869  0.30258949     0.03270
C2446       C  0.86598646  0.37924794  0.31716627    -0.04600
C2447       C  0.83633395  0.36884211  0.30142265    -0.01710
C2448       C  0.81492273  0.38734252  0.28467850     0.03270
C2449       C  0.87307240  0.44522121  0.27357268     0.37920
C2450       C  0.83105120  0.33944087  0.29671909     0.37910
C2451       C  0.78147676  0.37958545  0.27387799     0.36330
C2452       C  0.91545766  0.40755591  0.30788286     0.36330
N2453       N  0.75475237  0.37337765  0.26542375    -0.38490
N2454       N  0.94310209  0.41312329  0.31025896    -0.38490
N2455       N  0.82671172  0.31615852  0.29134401    -0.37930
N2456       N  0.88331476  0.46559803  0.26486694    -0.37940
C2457       C  0.91422814  0.35568330  0.34339275    -0.04600
C2458       C  0.94601087  0.35883075  0.36026839    -0.01720
C2459       C  0.96981800  0.33708363  0.35922140     0.03270
C2460       C  0.96145384  0.31251998  0.34264356    -0.04600
C2461       C  0.92888146  0.30987127  0.32843206    -0.01710
C2462       C  0.91161641  0.33377492  0.32134651     0.03270
C2463       C  0.95824513  0.38539858  0.37105838     0.37920
C2464       C  0.91429248  0.28428379  0.31604111     0.37910
C2465       C  0.90354487  0.33857600  0.28830916     0.36330
C2466       C  0.00342061  0.34033216  0.37329567     0.36330
N2467       N  0.89768450  0.34206100  0.26182150    -0.38490
N2468       N  0.03021640  0.34278665  0.38450734    -0.38490
N2469       N  0.90254611  0.26410042  0.30574296    -0.37930
N2470       N  0.97061968  0.40597567  0.37902504    -0.37940
C2471       C  0.88068000  0.36969502  0.85005814    -0.01750
C2472       C  0.60453606  0.15132136  0.59471687    -0.01750
C2473       C  0.56942542  0.42585417  0.94092101     0.43190
N2474       N  0.53456132  0.46122499  0.94060284     0.02080
C2475       C  0.52856640  0.04110300  0.57214861    -0.05790
H2476       H  0.95430795  0.45154905  0.57346059     0.07580
C2477       C  0.87989880  0.51550712  0.98970787    -0.06140
Co2478     Co  0.54384074  0.48196218  0.00468580     0.74180
N2479       N  0.98690767  0.46888209  0.54228915    -0.25320
Co2480     Co  0.97170409  0.51093743  0.53486623     0.74070
C2481       C  0.87090522  0.50447724  0.01970332     0.43300
N2482       N  0.94254709  0.50357809  0.92769212     0.01700
N2483       N  0.92417461  0.50140581  0.51691152     0.01800
N2484       N  0.57319893  0.02340840  0.55093998    -0.46170
H2485       H  0.56945189  0.42175810  0.99343936     0.07560
N2486       N  0.51400291  0.45877927  0.53118768     0.02090
N2487       N  0.95569510  0.05350167  0.52625989     0.01830
C2488       C  0.92838764  0.09300932  0.52484252     0.43430
N2489       N  0.96889833  0.49198980  0.91670373    -0.24780
C2490       C  0.60898541  0.00182753  0.97293623    -0.05700
N2491       N  0.55300750  0.44571428  0.92272958    -0.45880
N2492       N  0.93919785  0.07120721  0.54354806    -0.46110
C2493       C  0.61493060  0.01282616  0.94175541     0.43210
N2494       N  0.54600368  0.01116582  0.53972493     0.02080
N2495       N  0.00223063  0.04481511  0.92327300    -0.24800
N2496       N  0.53982907  0.45316575  0.96972120    -0.25290
N2497       N  0.97592215  0.05606138  0.93436337     0.01720
H2498       H  0.03619413  0.06009891  0.89219464     0.07610
H2499       H  0.93471268  0.09772984  0.97321341     0.07640
N2500       N  0.51935121  0.02154468  0.55129843    -0.25340
N2501       N  0.91324786  0.51270245  0.99002268    -0.24950
N2502       N  0.56281016  0.01507999  0.94922619     0.02080
C2503       C  0.49860463  0.42540587  0.55892338     0.43480
C2504       C  0.95918459  0.47138484  0.89749682    -0.06210
N2505       N  0.95343425  0.06183818  0.99720469    -0.24950
H2506       H  0.86432485  0.52702120  0.97250567     0.07630
N2507       N  0.52175176  0.43325392  0.54070710    -0.46180
H2508       H  0.97539800  0.45750344  0.88606918     0.07610
C2509       C  0.99340561  0.08814735  0.90601600     0.43310
C2510       C  0.55841361  0.43006364  0.97169095    -0.05700
Co2511     Co  0.51661201  0.00336501  0.93199938     0.73820
N2512       N  0.91495467  0.49117826  0.91784795    -0.45890
C2513       C  0.56406182  0.04289167  0.57101849     0.43580
N2514       N  0.58466834  0.02089434  0.92962805    -0.45880
Co2515     Co  0.94636168  0.03351763  0.96179084     0.73890
C2516       C  0.94101069  0.08740712  0.99502303    -0.06210
C2517       C  0.97527208  0.44910671  0.56001467    -0.05770
N2518       N  0.57583392  0.00392647  0.97549680    -0.25300
N2519       N  0.90019288  0.49667162  0.53491525    -0.46060
H2520       H  0.01200900  0.05475704  0.58363398     0.07590
C2521       C  0.01511518  0.06359927  0.90526932    -0.06190
Cl2522     Cl  0.99458084  0.00731823  0.98333905    -0.49190
C2523       C  0.92364470  0.47089902  0.89861312     0.43340
H2524       H  0.62639026  0.99060288  0.98862014     0.07550
N2525       N  0.96946397  0.08166525  0.92416920    -0.45900
C2526       C  0.85054985  0.29038132  0.54668811     0.43190
N2527       N  0.82943357  0.27662142  0.00050868     0.02080
C2528       C  0.67162556  0.32533709  0.94342168    -0.05790
H2529       H  0.68652704  0.31565009  0.55734523     0.07580
C2530       C  0.72024508  0.21279285  0.54215060    -0.06140
Co2531     Co  0.77071287  0.31397510  0.97823573     0.74180
N2532       N  0.72047374  0.30941415  0.52235282    -0.25320
Co2533     Co  0.70118151  0.28099597  0.98774110     0.74070
C2534       C  0.69595192  0.22794312  0.55886823     0.43300
N2535       N  0.78685188  0.20435070  0.00247795     0.01700
N2536       N  0.70534095  0.25096591  0.51971034     0.01800
N2537       N  0.71608796  0.35175546  0.94040186    -0.46170
H2538       H  0.81698479  0.32936866  0.54281116     0.07560
N2539       N  0.74852920  0.32105976  0.51820237     0.02090
N2540       N  0.68393916  0.25307727  0.95273004     0.01830
C2541       C  0.66136927  0.23613136  0.90947998     0.43430
N2542       N  0.81366257  0.21746169  0.99713656    -0.24780
C2543       C  0.78097430  0.31559898  0.91083877    -0.05700
N2544       N  0.85044912  0.26970235  0.52493674    -0.45880
N2545       N  0.66178316  0.25853617  0.92875951    -0.46110
C2546       C  0.79344623  0.29746712  0.88710500     0.43210
N2547       N  0.72488054  0.32731321  0.95322763     0.02080
N2548       N  0.79090737  0.22012509  0.93064238    -0.24800
N2549       N  0.81438834  0.30063070  0.00489479    -0.25290
N2550       N  0.76372295  0.20765237  0.93629937     0.01720
H2551       H  0.82168350  0.21542573  0.89241897     0.07610
H2552       H  0.69388933  0.19716009  0.91387561     0.07640
N2553       N  0.69882514  0.31234106  0.95618690    -0.25340
N2554       N  0.72200517  0.22760245  0.01678712    -0.24950
N2555       N  0.80482290  0.27983017  0.93253585     0.02080
C2556       C  0.73512782  0.34064291  0.56049318     0.43480
C2557       C  0.84008087  0.20369224  0.01042638    -0.06210
N2558       N  0.69907741  0.22888233  0.94959108    -0.24950
H2559       H  0.72913412  0.19160262  0.54502310     0.07630
N2560       N  0.75777094  0.33938462  0.53988019    -0.46180
H2561       H  0.86525377  0.20778319  0.00634459     0.07610
C2562       C  0.77405108  0.18994070  0.89212980     0.43310
C2563       C  0.82670464  0.31103545  0.53257767    -0.05700
Co2564     Co  0.81117360  0.24902019  0.96492630     0.73820
N2565       N  0.79392135  0.18102559  0.01809396    -0.45890
C2566       C  0.68267538  0.35156806  0.93251836     0.43580
N2567       N  0.80732315  0.27544682  0.90265681    -0.45880
Co2568     Co  0.74206931  0.21644712  0.97680576     0.73890
C2569       C  0.68576687  0.21657798  0.92348097    -0.06210
C2570       C  0.70971866  0.32041799  0.54869153    -0.05770
N2571       N  0.78958883  0.30350171  0.93777884    -0.25300
N2572       N  0.69018037  0.25235518  0.54509761    -0.46060
H2573       H  0.64667392  0.31930808  0.94623051     0.07590
C2574       C  0.79990661  0.20987825  0.90317632    -0.06190
Cl2575     Cl  0.75632952  0.26512056  0.97689762    -0.49190
C2576       C  0.82726604  0.17964384  0.52512442     0.43340
H2577       H  0.76617394  0.33437729  0.90819428     0.07550
N2578       N  0.75324097  0.18953991  0.91443158    -0.45900
C2579       C  0.61047423  0.23070693  0.77782149     0.43190
N2580       N  0.56819710  0.22162979  0.74480215     0.02080
C2581       C  0.98200446  0.32772053  0.66200063    -0.05790
H2582       H  0.52444661  0.36161358  0.75301902     0.07580
C2583       C  0.98033677  0.27116445  0.81554404    -0.06140
Co2584     Co  0.55036544  0.27004552  0.70164955     0.74180
N2585       N  0.53405180  0.31922334  0.73969915    -0.25320
Co2586     Co  0.98628697  0.30364996  0.72886420     0.74070
C2587       C  0.98665029  0.29954954  0.82512800     0.43300
N2588       N  0.98608545  0.21310534  0.78775824     0.01700
N2589       N  0.98151722  0.29645981  0.77508843     0.01800
N2590       N  0.52688134  0.30687097  0.64429866    -0.46170
H2591       H  0.61686698  0.27245459  0.75308318     0.07560
N2592       N  0.55982043  0.30670254  0.72891400     0.02090
N2593       N  0.93954002  0.28899736  0.71509487     0.01830
C2594       C  0.89916797  0.28019302  0.68007112     0.43430
N2595       N  0.01268785  0.20092730  0.77845371    -0.24780
C2596       C  0.52828056  0.23335923  0.64325226    -0.05700
N2597       N  0.58617918  0.21267675  0.76989676    -0.45880
N2598       N  0.92228427  0.29869469  0.68983950    -0.46110
C2599       C  0.51038131  0.20715785  0.63776359     0.43210
N2600       N  0.52006656  0.29602702  0.67114785     0.02080
N2601       N  0.97383067  0.19035339  0.72105784    -0.24800
N2602       N  0.57870079  0.24534488  0.73484647    -0.25290
N2603       N  0.94787399  0.20417460  0.72917482     0.01720
H2604       H  0.98310306  0.14789643  0.71112047     0.07610
H2605       H  0.89236355  0.23727947  0.70112045     0.07640
N2606       N  0.99454658  0.30857418  0.68229018    -0.25340
N2607       N  0.97328869  0.27205577  0.78468235    -0.24950
N2608       N  0.52491835  0.21268446  0.68645436     0.02080
C2609       C  0.57609843  0.34891535  0.74016085     0.43480
C2610       C  0.52321698  0.18115845  0.79896389    -0.06210
N2611       N  0.92950699  0.26451900  0.72325794    -0.24950
H2612       H  0.97569928  0.25393577  0.83011613     0.07630
N2613       N  0.58500129  0.32393527  0.72796981    -0.46180
H2614       H  0.54147155  0.16524214  0.79515599     0.07610
C2615       C  0.92983840  0.16222654  0.71982218     0.43310
C2616       C  0.60530677  0.25264705  0.75406255    -0.05700
Co2617     Co  0.52148562  0.20622064  0.73213380     0.73820
N2618       N  0.97685810  0.20198271  0.81352616    -0.45890
C2619       C  0.50326865  0.32661217  0.63662180     0.43580
N2620       N  0.50922557  0.19623976  0.66580670    -0.45880
Co2621     Co  0.95766662  0.23938763  0.75648438     0.73890
C2622       C  0.90393355  0.25729628  0.70245698    -0.06210
C2623       C  0.54200100  0.34552986  0.74765003    -0.05770
N2624       N  0.53594394  0.23519431  0.67425860    -0.25300
N2625       N  0.99106563  0.31309567  0.79860705    -0.46060
H2626       H  0.96319843  0.34303521  0.66641304     0.07590
C2627       C  0.96513600  0.16403292  0.71446548    -0.06190
Cl2628     Cl  0.00404885  0.25485716  0.72977968    -0.49190
C2629       C  0.99964787  0.18213812  0.82261245     0.43340
H2630       H  0.53216589  0.24941992  0.62687265     0.07550
N2631       N  0.92174006  0.18822597  0.72940609    -0.45900
C2632       C  0.70039943  0.49484973  0.84080569     0.43190
N2633       N  0.73339283  0.50336344  0.80499654     0.02080
C2634       C  0.68535726  0.06314879  0.66422868    -0.05790
H2635       H  0.66040897  0.44931461  0.67309369     0.07580
C2636       C  0.77661401  0.43703419  0.67645673    -0.06140
Co2637     Co  0.69264155  0.02859113  0.75144519     0.74180
N2638       N  0.67505438  0.48529176  0.70120783    -0.25320
Co2639     Co  0.71159285  0.50358138  0.67678690     0.74070
C2640       C  0.74797913  0.42355679  0.65998863     0.43300
N2641       N  0.79936551  0.47290956  0.74381314     0.01700
N2642       N  0.73478896  0.46528754  0.67280109     0.01800
N2643       N  0.67161181  0.07662116  0.71201603    -0.46170
H2644       H  0.65512073  0.50595475  0.80741491     0.07560
N2645       N  0.66817367  0.49379904  0.72923981     0.02090
N2646       N  0.75017733  0.02014302  0.65179826     0.01830
C2647       C  0.78189432  0.02790901  0.61470852     0.43430
N2648       N  0.79166153  0.48052596  0.77166567    -0.24780
C2649       C  0.71307472  0.08854024  0.78555439    -0.05700
N2650       N  0.73289236  0.49728818  0.83528688    -0.45880
N2651       N  0.74994437  0.02451996  0.62117643    -0.46110
C2652       C  0.74441866  0.09878968  0.80290250     0.43210
N2653       N  0.68303750  0.05093746  0.71178747     0.02080
N2654       N  0.80976369  0.03741403  0.75620353    -0.24800
N2655       N  0.70317122  0.50657487  0.79148652    -0.25290
N2656       N  0.81635314  0.02931127  0.72802912     0.01720
H2657       H  0.82736508  0.07174826  0.78561012     0.07610
H2658       H  0.82821802  0.01929375  0.64757260     0.07640
N2659       N  0.69086976  0.04235207  0.68409947    -0.25340
N2660       N  0.76607907  0.46271505  0.68337524    -0.24950
N2661       N  0.75122120  0.05739263  0.78450055     0.02080
C2662       C  0.64058246  0.45578827  0.72070216     0.43480
C2663       C  0.79417645  0.45839792  0.78973193    -0.06210
N2664       N  0.78070005  0.01841845  0.66509456    -0.24950
H2665       H  0.80150356  0.42901412  0.68155238     0.07630
N2666       N  0.64829892  0.47638220  0.74188906    -0.46180
H2667       H  0.78779156  0.45838918  0.81332776     0.07610
C2668       C  0.84674504  0.06513544  0.73775891     0.43310
C2669       C  0.68128066  0.50134753  0.81153774    -0.05700
Co2670     Co  0.77252624  0.01925650  0.78000425     0.73820
N2671       N  0.80667545  0.44645460  0.74158325    -0.45890
C2672       C  0.67254665  0.08533842  0.68292203     0.43580
N2673       N  0.76595606  0.07774785  0.80051722    -0.45880
Co2674     Co  0.79146472  0.49618679  0.70541248     0.73890
C2675       C  0.80193968  0.02353572  0.64411680    -0.06210
C2676       C  0.65843492  0.46182977  0.69383409    -0.05770
N2677       N  0.72001177  0.06251674  0.77486791    -0.25300
N2678       N  0.72313637  0.44267953  0.65819143    -0.46060
H2679       H  0.69055309  0.06295844  0.64012227     0.07590
C2680       C  0.82800190  0.05983715  0.76430512    -0.06190
Cl2681     Cl  0.74200193  0.51212292  0.72835789    -0.49190
C2682       C  0.80371925  0.43572590  0.76936359     0.43340
H2683       H  0.68887052  0.09828656  0.78313966     0.07550
N2684       N  0.83816453  0.04526438  0.71621247    -0.45900
C2685       C  0.86765609  0.08972985  0.73251252    -0.04600
C2686       C  0.85570105  0.11704030  0.73675431    -0.01720
C2687       C  0.87535349  0.14024502  0.73162673     0.03270
C2688       C  0.90829043  0.13682128  0.72299078    -0.04600
C2689       C  0.91987962  0.10895678  0.71853604    -0.01710
C2690       C  0.89954697  0.08592862  0.72284105     0.03270
C2691       C  0.82238427  0.12146477  0.74543984     0.37920
C2692       C  0.95279026  0.10279109  0.71002494     0.37910
C2693       C  0.91198758  0.05787942  0.71819785     0.36330
C2694       C  0.86079272  0.16765131  0.73536728     0.36330
N2695       N  0.92183912  0.03552722  0.71448214    -0.38490
N2696       N  0.84886221  0.18936753  0.73851378    -0.38490
N2697       N  0.97879298  0.09626275  0.70348156    -0.37930
N2698       N  0.79584286  0.12510846  0.75232878    -0.37940
C2699       C  0.59268164  0.37638548  0.73514419    -0.04600
C2700       C  0.57778304  0.39633232  0.71396596    -0.01720
C2701       C  0.59346639  0.42189054  0.70914489     0.03270
C2702       C  0.62350920  0.42891985  0.72655736    -0.04600
C2703       C  0.63801277  0.40941048  0.74824040    -0.01710
C2704       C  0.62298493  0.38338818  0.75220524     0.03270
C2705       C  0.54601356  0.39080771  0.69708862     0.37920
C2706       C  0.66904794  0.41585363  0.76604092     0.37910
C2707       C  0.63849859  0.36415568  0.77472652     0.36330
C2708       C  0.57841287  0.44120499  0.68626533     0.36330
N2709       N  0.65133185  0.34919134  0.79298669    -0.38490
N2710       N  0.56649089  0.45659831  0.66793154    -0.38490
N2711       N  0.69378102  0.42110055  0.78025380    -0.37930
N2712       N  0.52043307  0.38674143  0.68383872    -0.37940
C2713       C  0.74797811  0.39903952  0.63862664    -0.04600
C2714       C  0.77042679  0.39747096  0.61583683    -0.01720
C2715       C  0.76304002  0.38133628  0.58883601     0.03270
C2716       C  0.73825449  0.36075146  0.58769324    -0.04600
C2717       C  0.71889221  0.35935205  0.61327965    -0.01710
C2718       C  0.72254669  0.37947468  0.63767204     0.03270
C2719       C  0.80096491  0.41275784  0.61939152     0.37920
C2720       C  0.69524222  0.33760442  0.61502879     0.37910
C2721       C  0.70113478  0.37932309  0.66268239     0.36330
C2722       C  0.77926257  0.38836273  0.56150618     0.36330
N2723       N  0.68423749  0.37914598  0.68277129    -0.38490
N2724       N  0.79179529  0.39419525  0.53959139    -0.38490
N2725       N  0.67627381  0.32037692  0.61719893    -0.37930
N2726       N  0.82552860  0.42462519  0.62197537    -0.37940
C2727       C  0.75357663  0.12410901  0.82346251    -0.04600
C2728       C  0.78350371  0.12398173  0.84423963    -0.01720
C2729       C  0.79208557  0.14699112  0.86401551     0.03270
C2730       C  0.77077276  0.17011772  0.86486036    -0.04600
C2731       C  0.74266037  0.17146794  0.84291427    -0.01710
C2732       C  0.73411756  0.14887432  0.82227866     0.03270
C2733       C  0.80571033  0.10001389  0.84691520     0.37920
C2734       C  0.72377221  0.19715484  0.84035118     0.37910
C2735       C  0.70579325  0.15179687  0.79942533     0.36330
C2736       C  0.82295558  0.14670574  0.88397386     0.36330
N2737       N  0.68322871  0.15464491  0.78116670    -0.38490
N2738       N  0.84780138  0.14650278  0.89950378    -0.38490
N2739       N  0.70967293  0.21814855  0.83790072    -0.37930
N2740       N  0.82373908  0.08113772  0.84956524    -0.37940
C2741       C  0.64841527  0.23536049  0.87584957    -0.04600
C2742       C  0.63554566  0.21043221  0.86267736    -0.01720
C2743       C  0.62559020  0.20835474  0.83045863     0.03270
C2744       C  0.62771706  0.23145237  0.81057745    -0.04600
C2745       C  0.64459350  0.25509435  0.82326343    -0.01710
C2746       C  0.65407120  0.25733647  0.85575656     0.03270
C2747       C  0.63326790  0.18635241  0.88220067     0.37920
C2748       C  0.65658273  0.27532727  0.80289195     0.37910
C2749       C  0.67325701  0.28085344  0.86776851     0.36330
C2750       C  0.61545720  0.18146392  0.81783458     0.36330
N2751       N  0.68915177  0.29935777  0.87703292    -0.38490
N2752       N  0.60786012  0.15979897  0.80813288    -0.38490
N2753       N  0.66755360  0.29105743  0.78692378    -0.37930
N2754       N  0.63155252  0.16713485  0.89768822    -0.37940
C2755       C  0.88339546  0.28067707  0.64696698    -0.04600
C2756       C  0.88978471  0.25951673  0.62520768    -0.01720
C2757       C  0.88011458  0.26287427  0.59277742     0.03270
C2758       C  0.86337077  0.28748299  0.58119010    -0.04600
C2759       C  0.85902136  0.30923167  0.60331650    -0.01710
C2760       C  0.86767664  0.30536359  0.63566113     0.03270
C2761       C  0.90845644  0.23488653  0.63578592     0.37920
C2762       C  0.85077155  0.33724160  0.59334479     0.37910
C2763       C  0.86135563  0.32758791  0.65755528     0.36330
C2764       C  0.89091542  0.24184855  0.57151529     0.36330
N2765       N  0.85633236  0.34529355  0.67496081    -0.38490
N2766       N  0.90091239  0.22496368  0.55539452    -0.38490
N2767       N  0.84551199  0.36009191  0.58639913    -0.37930
N2768       N  0.92344120  0.21524796  0.64403502    -0.37940
C2769       C  0.89754272  0.11094517  0.52748095    -0.04600
C2770       C  0.87396419  0.11548747  0.00102385    -0.01720
C2771       C  0.84864658  0.13589531  0.00194352     0.03270
C2772       C  0.84702967  0.15314322  0.52830236    -0.04600
C2773       C  0.86808257  0.14712964  0.55550068    -0.01710
C2774       C  0.89221984  0.12534913  0.55539876     0.03270
C2775       C  0.87415665  0.09882896  0.97269671     0.37920
C2776       C  0.86501800  0.16354663  0.58348327     0.37910
C2777       C  0.91099734  0.11727289  0.58407975     0.36330
C2778       C  0.82424681  0.13954671  0.97533025     0.36330
N2779       N  0.92524648  0.10978239  0.60701620    -0.38490
N2780       N  0.80432429  0.14232310  0.95451834    -0.38490
N2781       N  0.86243591  0.17668378  0.60580639    -0.37930
N2782       N  0.87369387  0.08569269  0.94997440    -0.37940
C2783       C  0.65943200  0.37636634  0.93014621    -0.04600
C2784       C  0.63349842  0.37793891  0.90573744    -0.01720
C2785       C  0.60581308  0.39620736  0.90781061     0.03270
C2786       C  0.60238475  0.41195434  0.93525344    -0.04600
C2787       C  0.63001076  0.41209999  0.95854310    -0.01710
C2788       C  0.65813528  0.39463106  0.95579969     0.03270
C2789       C  0.63436101  0.35947776  0.87908698     0.37920
C2790       C  0.62999117  0.42934270  0.98633368     0.37910
C2791       C  0.68467657  0.39382694  0.98090776     0.36330
C2792       C  0.58014070  0.39783886  0.88213138     0.36330
N2793       N  0.70570860  0.39318053  0.00099752    -0.38490
N2794       N  0.55982116  0.39939163  0.86147572    -0.38490
N2795       N  0.63065591  0.44201490  0.00937010    -0.37930
N2796       N  0.63472563  0.34454645  0.85791013    -0.37940
C2797       C  0.64044451  0.00340961  0.91972236    -0.04600
C2798       C  0.63034394  0.98802687  0.89210075    -0.01720
C2799       C  0.65279631  0.48097986  0.87002629     0.03270
C2800       C  0.68418708  0.49329285  0.87124008    -0.04600
C2801       C  0.69496310  0.00825227  0.89885877    -0.01710
C2802       C  0.67368357  0.01233368  0.92336865     0.03270
C2803       C  0.59585652  0.98215889  0.88343346     0.37920
C2804       C  0.72719807  0.02062211  0.90149737     0.37910
C2805       C  0.68515855  0.02769981  0.95125833     0.36330
C2806       C  0.64263795  0.46156621  0.84497737     0.36330
N2807       N  0.69431039  0.03994713  0.97359803    -0.38490
N2808       N  0.63423346  0.44610958  0.82515896    -0.38490
N2809       N  0.75297516  0.03054136  0.90360289    -0.37930
N2810       N  0.56852023  0.97857301  0.87451068    -0.37940
C2811       C  0.84043523  0.50983350  0.53725250    -0.04600
C2812       C  0.82661597  0.03677907  0.54083546    -0.01720
C2813       C  0.80761199  0.04328511  0.56612625     0.03270
C2814       C  0.79581176  0.02197039  0.58387843    -0.04600
C2815       C  0.80238898  0.49441875  0.57460390    -0.01710
C2816       C  0.82682831  0.48831979  0.55378835     0.03270
C2817       C  0.82553346  0.05594505  0.51556367     0.37920
C2818       C  0.78092570  0.47321251  0.58373372     0.37910
C2819       C  0.83717968  0.45990257  0.54864649     0.36330
C2820       C  0.79954522  0.07189139  0.57327787     0.36330
N2821       N  0.84586735  0.43728995  0.54448831    -0.38490
N2822       N  0.79330542  0.09477504  0.57907796    -0.38490
N2823       N  0.76147180  0.45761332  0.58992241    -0.37930
N2824       N  0.82089884  0.07065188  0.49464541    -0.37940
C2825       C  0.50445657  0.34922742  0.61307336    -0.04600
C2826       C  0.97544991  0.35660677  0.59406184    -0.01720
C2827       C  0.97330532  0.38144067  0.57674125     0.03270
C2828       C  0.50071381  0.39900147  0.57731866    -0.04600
C2829       C  0.53073439  0.39050552  0.59447168    -0.01710
C2830       C  0.53258773  0.36579175  0.61217038     0.03270
C2831       C  0.94850995  0.33743366  0.59079557     0.37920
C2832       C  0.55952972  0.40778665  0.59513286     0.37910
C2833       C  0.56324781  0.35795175  0.63016296     0.36330
C2834       C  0.94312834  0.38838613  0.55749363     0.36330
N2835       N  0.58776042  0.35173252  0.64447535    -0.38490
N2836       N  0.91904113  0.39384692  0.54209549    -0.38490
N2837       N  0.58254659  0.42153751  0.59569843    -0.37930
N2838       N  0.92773688  0.32140582  0.58775283    -0.37940
C2839       C  0.99556062  0.16002477  0.84609343    -0.04600
C2840       C  0.96855321  0.14187182  0.84264808    -0.01720
C2841       C  0.96727411  0.11900192  0.86285573     0.03270
C2842       C  0.99337703  0.11358934  0.88629459    -0.04600
C2843       C  0.01937951  0.13267485  0.89081041    -0.01710
C2844       C  0.01986705  0.15611399  0.87136376     0.03270
C2845       C  0.94209836  0.14656182  0.81819829     0.37920
C2846       C  0.54516652  0.12866036  0.91607144     0.37910
C2847       C  0.54354504  0.17773894  0.87883815     0.36330
C2848       C  0.93940730  0.10060462  0.85896675     0.36330
N2849       N  0.56115045  0.19593079  0.88496407    -0.38490
N2850       N  0.91710629  0.08598486  0.85598174    -0.38490
N2851       N  0.56573433  0.12547224  0.93626196    -0.37930
N2852       N  0.92075821  0.15038576  0.79890477    -0.37940
C2853       C  0.65914397  0.11150143  0.67133186    -0.04600
C2854       C  0.67774832  0.12706561  0.65297058    -0.01720
C2855       C  0.66136163  0.14456087  0.63062983     0.03270
C2856       C  0.62544267  0.14669920  0.62765165    -0.04600
C2857       C  0.61076750  0.13885297  0.65469314    -0.01710
C2858       C  0.62651221  0.11916830  0.67480751     0.03270
C2859       C  0.71350562  0.12286212  0.65518390     0.37920
C2860       C  0.58478731  0.15471556  0.66700512     0.37910
C2861       C  0.60911530  0.10695697  0.69895291     0.36330
C2862       C  0.68289877  0.15670635  0.60979778     0.35830
N2863       N  0.59530013  0.09739592  0.71831632    -0.38490
N2864       N  0.70230442  0.16482873  0.59442338    -0.38490
N2865       N  0.56514943  0.16603406  0.68027136    -0.37930
N2866       N  0.74184555  0.11944869  0.65678479    -0.37940
C2867       C  0.56737329  0.16222293  0.59462697    -0.04600
C2868       C  0.55384943  0.18659278  0.57751285    -0.01720
C2869       C  0.52425322  0.19900212  0.58523595     0.03270
C2870       C  0.51000439  0.18875771  0.61023203    -0.04600
C2871       C  0.51382525  0.16019455  0.61568298    -0.01710
C2872       C  0.54329262  0.14673925  0.60871911     0.03270
C2873       C  0.56784997  0.19933169  0.55155519     0.37920
C2874       C  0.49087571  0.14653623  0.63369206     0.37910
C2875       C  0.54895027  0.11827434  0.61862056     0.36330
C2876       C  0.51043659  0.22415994  0.57069542     0.36330
N2877       N  0.55256264  0.09587410  0.62775362    -0.38490
N2878       N  0.49930057  0.24422170  0.55922632    -0.38490
N2879       N  0.47291144  0.13583484  0.64865569    -0.37930
N2880       N  0.57759154  0.21028649  0.53065101    -0.37940
C2881       C  0.66661952  0.21333928  0.56401129    -0.04600
C2882       C  0.65389052  0.19372998  0.54173758    -0.01720
C2883       C  0.63660579  0.17170311  0.55144983     0.03270
C2884       C  0.62296193  0.17422361  0.58057916    -0.04600
C2885       C  0.62789879  0.19964169  0.59852178    -0.01710
C2886       C  0.65184104  0.21793434  0.59125210     0.03270
C2887       C  0.65858074  0.19539759  0.00891969     0.37920
C2888       C  0.61156269  0.20602747  0.62629740     0.37910
C2889       C  0.66251272  0.24042633  0.61240206     0.36330
C2890       C  0.63628161  0.14705241  0.53166314     0.36330
N2891       N  0.67106050  0.25814577  0.62946259    -0.38490
N2892       N  0.63722997  0.12796056  0.51516008    -0.38490
N2893       N  0.59977542  0.21236091  0.64873977    -0.37930
N2894       N  0.66063071  0.19506474  0.98240359    -0.37940
C2895       C  0.60362316  0.12298271  0.57644030    -0.04600
C2896       C  0.57754799  0.11685695  0.55286586    -0.01720
C2897       C  0.56625706  0.08974845  0.54951232     0.03270
C2898       C  0.57945519  0.06953906  0.57066293    -0.04600
C2899       C  0.60973512  0.07375919  0.58779367    -0.01710
C2900       C  0.62378644  0.09984889  0.58715711     0.03270
C2901       C  0.56293675  0.13723227  0.53102598     0.37920
C2902       C  0.62736452  0.05061960  0.60333125     0.37910
C2903       C  0.65899500  0.09992117  0.58508939     0.36330
C2904       C  0.54227071  0.08247574  0.52364272     0.36330
N2905       N  0.68703092  0.09866218  0.58249655    -0.38490
N2906       N  0.02388068  0.07681382  0.50247171    -0.38490
N2907       N  0.64049615  0.03147213  0.61514719    -0.37930
N2908       N  0.55056674  0.15174231  0.51198428    -0.37940
C2909       C  0.90445846  0.44615303  0.89406087    -0.04600
C2910       C  0.91234574  0.42252625  0.91247332    -0.01720
C2911       C  0.90004415  0.39671035  0.90166222     0.03270
C2912       C  0.88181357  0.39561968  0.87208379    -0.04600
C2913       C  0.86362737  0.42041090  0.86352852    -0.01710
C2914       C  0.87746693  0.44583179  0.87164308     0.03270
C2915       C  0.93459559  0.42451581  0.94079985     0.37920
C2916       C  0.82903638  0.41982792  0.85232327     0.37910
C2917       C  0.86460087  0.47102608  0.85653332     0.36330
C2918       C  0.90731431  0.37227745  0.92024767     0.36330
N2919       N  0.85450667  0.49108496  0.84430943    -0.38490
N2920       N  0.91334623  0.35369581  0.93661146    -0.38490
N2921       N  0.80086514  0.41862701  0.84570079    -0.37930
N2922       N  0.45241665  0.42622062  0.96332583    -0.37940
C2923       C  0.85804907  0.34864147  0.86426319    -0.04600
C2924       C  0.82475000  0.35621774  0.86658676    -0.01720
C2925       C  0.80057276  0.33731882  0.85606120     0.03270
C2926       C  0.80854643  0.30916186  0.86078534    -0.04600
C2927       C  0.84163757  0.30057042  0.85966454    -0.01710
C2928       C  0.86621569  0.32004979  0.86715366     0.03270
C2929       C  0.81733634  0.37426130  0.89218489     0.37920
C2930       C  0.85018873  0.27135764  0.85690036     0.37910
C2931       C  0.89604013  0.31083881  0.88546103     0.36330
C2932       C  0.76651210  0.34651831  0.84959471     0.36330
N2933       N  0.91930833  0.30255040  0.90029920    -0.38490
N2934       N  0.73933893  0.35395064  0.84447131    -0.38490
N2935       N  0.85691991  0.24802977  0.85486834    -0.37930
N2936       N  0.81143839  0.38832946  0.91297887    -0.37940
C2937       C  0.82625769  0.41385504  0.77960789    -0.04600
C2938       C  0.86010394  0.41962024  0.78447857    -0.01720
C2939       C  0.88064333  0.40151625  0.80259164     0.03270
C2940       C  0.86598201  0.37923730  0.81716588    -0.04600
C2941       C  0.83632778  0.36883686  0.80141962    -0.01710
C2942       C  0.81492274  0.38734092  0.78467399     0.03270
C2943       C  0.87308683  0.44521077  0.77357678     0.37920
C2944       C  0.83103713  0.33943681  0.79671479     0.37910
C2945       C  0.78147548  0.37958964  0.77387041     0.36330
C2946       C  0.91546144  0.40753663  0.80788529     0.36330
N2947       N  0.75475016  0.37338619  0.76541378    -0.38490
N2948       N  0.94310755  0.41309852  0.81026043    -0.38490
N2949       N  0.82669115  0.31615560  0.79133800    -0.37930
N2950       N  0.88333423  0.46558634  0.76487307    -0.37940
C2951       C  0.91421834  0.35566840  0.84339827    -0.04600
C2952       C  0.94600115  0.35881901  0.86027354    -0.01720
C2953       C  0.96981242  0.33707527  0.85922510     0.03270
C2954       C  0.96145270  0.31251116  0.84264694    -0.04600
C2955       C  0.92887982  0.30985744  0.82843884    -0.01710
C2956       C  0.91160929  0.33375859  0.82135323     0.03270
C2957       C  0.95823116  0.38538707  0.87106686     0.37920
C2958       C  0.91429518  0.28426712  0.81605129     0.37910
C2959       C  0.90353142  0.33855579  0.78831598     0.36330
C2960       C  0.00341504  0.34032807  0.87329772     0.36330
N2961       N  0.89766719  0.34203759  0.76182814    -0.38490
N2962       N  0.03021083  0.34278608  0.88450797    -0.38490
N2963       N  0.90255294  0.26408123  0.80575569    -0.37930
N2964       N  0.97060375  0.40596419  0.87903630    -0.37940
C2965       C  0.88070507  0.86972517  0.35006804    -0.01750
C2966       C  0.60451419  0.65131882  0.09470918    -0.01750
C2967       C  0.56943541  0.92587051  0.44092532     0.43190
N2968       N  0.53457320  0.96124275  0.44060916     0.02080
C2969       C  0.52857160  0.54109620  0.07213997    -0.05790
H2970       H  0.95431271  0.95155277  0.07346438     0.07580
C2971       C  0.87990704  0.01551314  0.48970791    -0.06140
Co2972     Co  0.54384471  0.98196879  0.50469615     0.74180
N2973       N  0.98691003  0.96888058  0.04228734    -0.25320
Co2974     Co  0.97171141  0.01093669  0.03486410     0.74070
C2975       C  0.87091033  0.00447805  0.51970000     0.43300
N2976       N  0.94256379  0.00360148  0.42769541     0.01700
N2977       N  0.92417864  0.00140923  0.01691533     0.01800
N2978       N  0.57320120  0.52340092  0.05092712    -0.46170
H2979       H  0.56945125  0.92176510  0.49344161     0.07560
N2980       N  0.51400042  0.95877369  0.03118155     0.02090
N2981       N  0.95569380  0.55349734  0.02624441     0.01830
C2982       C  0.92839171  0.59300793  0.02482343     0.43430
N2983       N  0.96891576  0.99201439  0.41670746    -0.24780
C2984       C  0.60899056  0.50183653  0.47294969    -0.05700
N2985       N  0.55302213  0.94573448  0.42273593    -0.45880
N2986       N  0.93920279  0.57120795  0.04353208    -0.46110
C2987       C  0.61493674  0.51283926  0.44177080     0.43210
N2988       N  0.54600385  0.51116232  0.03971047     0.02080
N2989       N  0.00223287  0.54482601  0.42328284    -0.24800
N2990       N  0.53983509  0.95317801  0.46972600    -0.25290
N2991       N  0.97592192  0.55606979  0.43437127     0.01720
H2992       H  0.03619756  0.56011349  0.39220791     0.07610
H2993       H  0.93469909  0.59773098  0.47321942     0.07640
N2994       N  0.51935320  0.52154207  0.05128612    -0.25340
N2995       N  0.91325661  0.01271044  0.49002582    -0.24950
N2996       N  0.56281699  0.51509712  0.44924375     0.02080
C2997       C  0.49860146  0.92540364  0.05892083     0.43480
C2998       C  0.95920163  0.97141893  0.39748719    -0.06210
N2999       N  0.95342373  0.56183954  0.49720942    -0.24950
H3000       H  0.86433432  0.02702875  0.47250621     0.07630
N3001       N  0.52174763  0.93324847  0.04070200    -0.46180
H3002       H  0.97541417  0.95753951  0.38605518     0.07610
C3003       C  0.99340468  0.58815816  0.40602670     0.43310
C3004       C  0.55841773  0.93007485  0.47169360    -0.05700
Co3005     Co  0.51662160  0.50338165  0.43201091     0.73820
N3006       N  0.91497043  0.99120968  0.41783808    -0.45890
C3007       C  0.56406703  0.54288268  0.07100874     0.43580
N3008       N  0.58467562  0.52091324  0.42964684    -0.45880
Co3009     Co  0.94636008  0.53352137  0.46179290     0.73890
C3010       C  0.94099687  0.58740740  0.49502864    -0.06210
C3011       C  0.97527443  0.94910758  0.06001578    -0.05770
N3012       N  0.57583950  0.50393877  0.47551197    -0.25300
N3013       N  0.90019830  0.99667793  0.03492170    -0.46060
H3014       H  0.01201228  0.55474559  0.08362766     0.07590
C3015       C  0.01511718  0.56361186  0.40528117    -0.06190
Cl3016     Cl  0.99457995  0.50732415  0.48334412    -0.49190
C3017       C  0.92366037  0.97093675  0.39859549     0.43340
H3018       H  0.62639379  0.49060724  0.48863034     0.07550
N3019       N  0.96946172  0.58167348  0.42417735    -0.45900
C3020       C  0.85054510  0.79038200  0.04668970     0.43190
N3021       N  0.82943144  0.77661918  0.50050851     0.02080
C3022       C  0.67162664  0.82534571  0.44342054    -0.05790
H3023       H  0.68652260  0.81565267  0.05734294     0.07580
C3024       C  0.72022560  0.71278864  0.04214978    -0.06140
Co3025     Co  0.77071253  0.81397598  0.47823605     0.74180
N3026       N  0.72047086  0.80941432  0.02235227    -0.25320
Co3027     Co  0.70117808  0.78100006  0.48773677     0.74070
C3028       C  0.69592901  0.72794045  0.05886255     0.43300
N3029       N  0.78684341  0.70435079  0.50247120     0.01700
N3030       N  0.70533550  0.75096568  0.01971182     0.01800
N3031       N  0.71609196  0.85176136  0.44040410    -0.46170
H3032       H  0.81698219  0.82936852  0.04280783     0.07560
N3033       N  0.74852633  0.82105998  0.01820163     0.02090
N3034       N  0.68393485  0.75308290  0.45272467     0.01830
C3035       C  0.66136263  0.73613711  0.40947562     0.43430
N3036       N  0.81365578  0.71745994  0.49713155    -0.24780
C3037       C  0.78098602  0.81560552  0.41084123    -0.05700
N3038       N  0.85044489  0.76970264  0.02493896    -0.45880
N3039       N  0.66177797  0.75854214  0.42875496    -0.46110
C3040       C  0.79346614  0.79747739  0.38710777     0.43210
N3041       N  0.72488202  0.82731733  0.45322672     0.02080
N3042       N  0.79090267  0.72012837  0.43063756    -0.24800
N3043       N  0.81438639  0.80062871  0.50489647    -0.25290
N3044       N  0.76371683  0.70765683  0.43629260     0.01720
H3045       H  0.82167968  0.71543026  0.39241458     0.07610
H3046       H  0.69388156  0.69716501  0.41387061     0.07640
N3047       N  0.69882488  0.81234662  0.45618417    -0.25340
N3048       N  0.72200314  0.72760659  0.51678100    -0.24950
N3049       N  0.80482311  0.77983169  0.43253642     0.02080
C3050       C  0.73512309  0.84064572  0.06049027     0.43480
C3051       C  0.84007196  0.70368795  0.51042157    -0.06210
N3052       N  0.69907211  0.72888764  0.44958524    -0.24950
H3053       H  0.72910826  0.69159649  0.04502044     0.07630
N3054       N  0.75776705  0.83938641  0.03987813    -0.46180
H3055       H  0.86524564  0.70777680  0.50634067     0.07610
C3056       C  0.77404522  0.68994748  0.39212232     0.43310
C3057       C  0.82670089  0.81103671  0.03257767    -0.05700
Co3058     Co  0.81117017  0.74902025  0.46492403     0.73820
N3059       N  0.79390907  0.68102524  0.51808722    -0.45890
C3060       C  0.68267931  0.85157703  0.43252052     0.43580
N3061       N  0.80733178  0.77545232  0.40265824    -0.45880
Co3062     Co  0.74206333  0.71645050  0.47679901     0.73890
C3063       C  0.68576012  0.71658329  0.42347587    -0.06210
C3064       C  0.70971472  0.82041974  0.04868974    -0.05770
N3065       N  0.78959073  0.80350368  0.43778013    -0.25300
N3066       N  0.69016551  0.75235395  0.04509356    -0.46060
H3067       H  0.64667432  0.81931851  0.44622928     0.07590
C3068       C  0.79990208  0.70988296  0.40317106    -0.06190
Cl3069     Cl  0.75632614  0.76512278  0.47689398    -0.49190
C3070       C  0.82726793  0.67964399  0.02512662     0.43340
H3071       H  0.76619102  0.83438694  0.40819768     0.07550
N3072       N  0.75323407  0.68954627  0.41442316    -0.45900
C3073       C  0.61046823  0.73071022  0.27781777     0.43190
N3074       N  0.56818970  0.72163308  0.24480042     0.02080
C3075       C  0.98199923  0.82772033  0.16200033    -0.05790
H3076       H  0.52444037  0.86161852  0.25301128     0.07580
C3077       C  0.98032303  0.77117291  0.31554644    -0.06140
Co3078     Co  0.55035686  0.77004743  0.20164663     0.74180
N3079       N  0.53404540  0.81922773  0.23969334    -0.25320
Co3080     Co  0.98628288  0.80365044  0.22886317     0.74070
C3081       C  0.98664728  0.79955799  0.32512614     0.43300
N3082       N  0.98608123  0.71311026  0.28776184     0.01700
N3083       N  0.98151528  0.79646184  0.27508722     0.01800
N3084       N  0.52687116  0.80687006  0.14429505    -0.46170
H3085       H  0.61686059  0.77245736  0.25307817     0.07560
N3086       N  0.55981361  0.80670622  0.22890830     0.02090
N3087       N  0.93953503  0.78899795  0.21509512     0.01830
C3088       C  0.89916273  0.78019237  0.18007225     0.43430
N3089       N  0.01268259  0.70093086  0.27845656    -0.24780
C3090       C  0.52826828  0.73335975  0.14325183    -0.05700
N3091       N  0.58617275  0.71268023  0.26989444    -0.45880
N3092       N  0.92227925  0.79869429  0.18983924    -0.46110
C3093       C  0.51036860  0.70715851  0.13776461     0.43210
N3094       N  0.52005686  0.79602725  0.17114482     0.02080
N3095       N  0.97382437  0.69035482  0.22106178    -0.24800
N3096       N  0.57869321  0.74534782  0.23484366    -0.25290
N3097       N  0.94786805  0.70417594  0.22917970     0.01720
H3098       H  0.98309727  0.64789789  0.21112539     0.07610
H3099       H  0.89235824  0.73727970  0.20112335     0.07640
N3100       N  0.99454115  0.80857364  0.18228934    -0.25340
N3101       N  0.97328059  0.77206043  0.28468385    -0.24950
N3102       N  0.52490858  0.71268582  0.18645496     0.02080
C3103       C  0.57609159  0.84891973  0.24015213     0.43480
C3104       C  0.52321269  0.68116598  0.29896813    -0.06210
N3105       N  0.92950146  0.76452017  0.22325966    -0.24950
H3106       H  0.97568010  0.75394700  0.33012056     0.07630
N3107       N  0.58499431  0.82393897  0.22796232    -0.46180
H3108       H  0.54146673  0.66524918  0.29516047     0.07610
C3109       C  0.92983292  0.66222746  0.21982862     0.43310
C3110       C  0.60530006  0.75265004  0.25405852    -0.05700
Co3111     Co  0.52147759  0.70622439  0.23213549     0.73820
N3112       N  0.97685544  0.70198990  0.31353157    -0.45890
C3113       C  0.50325874  0.82661129  0.13661814     0.43580
N3114       N  0.50921426  0.69624106  0.16580830    -0.45880
Co3115     Co  0.95766075  0.73939050  0.25648730     0.73890
C3116       C  0.90392815  0.75729656  0.20245905    -0.06210
C3117       C  0.54199459  0.84553461  0.24764240    -0.05770
N3118       N  0.53593364  0.73519528  0.17425790    -0.25300
N3119       N  0.99106760  0.81309880  0.29860340    -0.46060
H3120       H  0.96319389  0.84303544  0.16641341     0.07590
C3121       C  0.96513000  0.66403417  0.21447056    -0.06190
Cl3122     Cl  0.00404341  0.75485815  0.22978036    -0.49190
C3123       C  0.99964506  0.68214536  0.32261830     0.43340
H3124       H  0.53215281  0.74942012  0.12687162     0.07550
N3125       N  0.92173450  0.68822698  0.22941237    -0.45900
C3126       C  0.70039020  0.99485284  0.34080715     0.43190
N3127       N  0.73338419  0.00336420  0.30499756     0.02080
C3128       C  0.68535012  0.56315361  0.16422823    -0.05790
H3129       H  0.66040277  0.94932213  0.17309083     0.07580
C3130       C  0.77660613  0.93703802  0.17645296    -0.06140
Co3131     Co  0.69263416  0.52859651  0.25144566     0.74180
N3132       N  0.67504830  0.98529840  0.20120640    -0.25320
Co3133     Co  0.71158907  0.00358757  0.17678732     0.74070
C3134       C  0.74797092  0.92356286  0.15998294     0.43300
N3135       N  0.79935408  0.97290726  0.24381396     0.01700
N3136       N  0.73478242  0.96529286  0.17279936     0.01800
N3137       N  0.67160111  0.57662574  0.21201439    -0.46170
H3138       H  0.65511264  0.00596301  0.30741668     0.07560
N3139       N  0.66816709  0.99380495  0.22923855     0.02090
N3140       N  0.75017184  0.52014727  0.15180026     0.01830
C3141       C  0.78188971  0.52791254  0.11471137     0.43430
N3142       N  0.79165006  0.98052340  0.27166644    -0.24780
C3143       C  0.71307027  0.58854543  0.28555199    -0.05700
N3144       N  0.73288324  0.99728848  0.33528771    -0.45880
N3145       N  0.74993947  0.52452434  0.12117856    -0.46110
C3146       C  0.74441429  0.59879407  0.30290040     0.43210
N3147       N  0.68303080  0.55094309  0.21178743     0.02080
N3148       N  0.80975714  0.53741481  0.25620665    -0.24800
N3149       N  0.70316297  0.00657840  0.29148762    -0.25290
N3150       N  0.81634683  0.52931227  0.22803228     0.01720
H3151       H  0.82735918  0.57174836  0.28561390     0.07610
H3152       H  0.82821279  0.51929595  0.14757574     0.07640
N3153       N  0.69086416  0.54235760  0.18409987    -0.25340
N3154       N  0.76607213  0.96271853  0.18337401    -0.24950
N3155       N  0.75121468  0.55739552  0.28450216     0.02080
C3156       C  0.64057502  0.95579468  0.22069887     0.43480
C3157       C  0.79415971  0.95839408  0.28973063    -0.06210
N3158       N  0.78069436  0.51842189  0.16509700    -0.24950
H3159       H  0.80149531  0.92901693  0.18154802     0.07630
N3160       N  0.64829165  0.97638792  0.24188669    -0.46180
H3161       H  0.78777047  0.95838475  0.31332488     0.07610
C3162       C  0.84674001  0.56513553  0.23776331     0.43310
C3163       C  0.68127195  0.00135300  0.31153923    -0.05700
Co3164     Co  0.77251805  0.51925852  0.28000614     0.73820
N3165       N  0.80665948  0.94645144  0.24158273    -0.45890
C3166       C  0.67253551  0.58534235  0.18291991     0.43580
N3167       N  0.76595036  0.57775080  0.30051798    -0.45880
Co3168     Co  0.79145914  0.99618743  0.20541503     0.73890
C3169       C  0.80193462  0.52353869  0.14411968    -0.06210
C3170       C  0.65842831  0.96183685  0.19383145    -0.05770
N3171       N  0.72000594  0.56252101  0.27486786    -0.25300
N3172       N  0.72312905  0.94268641  0.15818689    -0.46060
H3173       H  0.69054539  0.56296291  0.14012170     0.07590
C3174       C  0.82799613  0.55983733  0.26430895    -0.06190
Cl3175     Cl  0.74199655  0.01212563  0.22835952    -0.49190
C3176       C  0.80370330  0.93572165  0.26936277     0.43340
H3177       H  0.68886682  0.59829297  0.28313512     0.07550
N3178       N  0.83815909  0.54526502  0.21621633    -0.45900
C3179       C  0.86765106  0.58973009  0.23251752    -0.04600
C3180       C  0.85569526  0.61704047  0.23675821    -0.01720
C3181       C  0.87534782  0.64024537  0.23163163     0.03270
C3182       C  0.90828533  0.63682191  0.22299719    -0.04600
C3183       C  0.91987532  0.60895744  0.21854348    -0.01710
C3184       C  0.89954276  0.58592908  0.22284795     0.03270
C3185       C  0.82237749  0.62146466  0.24544122     0.37920
C3186       C  0.95278660  0.60279199  0.21003389     0.37910
C3187       C  0.91198414  0.55787993  0.21820603     0.36330
C3188       C  0.86078652  0.66765155  0.23537129     0.36330
N3189       N  0.92183627  0.53552775  0.21449135    -0.38490
N3190       N  0.84885555  0.68936770  0.23851703    -0.38490
N3191       N  0.97878980  0.59626398  0.20349151    -0.37930
N3192       N  0.79583521  0.62510814  0.25232796    -0.37940
C3193       C  0.59267520  0.87638995  0.23513586    -0.04600
C3194       C  0.57777674  0.89633740  0.21395829    -0.01720
C3195       C  0.59345985  0.92189613  0.20913868     0.03270
C3196       C  0.62350168  0.92892581  0.22655279    -0.04600
C3197       C  0.63800458  0.90941607  0.24823579    -0.01710
C3198       C  0.62297786  0.88339276  0.25219795     0.03270
C3199       C  0.54600769  0.89081284  0.19708012     0.37920
C3200       C  0.66903783  0.91585995  0.26603932     0.37910
C3201       C  0.63849268  0.86415869  0.27471669     0.36330
C3202       C  0.57840696  0.94121081  0.18625907     0.36330
N3203       N  0.65132719  0.84919261  0.29297424    -0.38490
N3204       N  0.56648552  0.95660429  0.16792519    -0.38490
N3205       N  0.69376937  0.92110722  0.28025468    -0.37930
N3206       N  0.52042747  0.88674655  0.18382965    -0.37940
C3207       C  0.74796937  0.89904661  0.13861968    -0.04600
C3208       C  0.77041636  0.89747969  0.11582833    -0.01720
C3209       C  0.76302995  0.88134376  0.08882838     0.03270
C3210       C  0.73824757  0.86075649  0.08768823    -0.04600
C3211       C  0.71888693  0.85935636  0.11327570    -0.01710
C3212       C  0.72254011  0.87948003  0.13766700     0.03270
C3213       C  0.80095338  0.91276807  0.11938177     0.37920
C3214       C  0.69524054  0.83760643  0.11502742     0.37910
C3215       C  0.70112968  0.87932742  0.16267848     0.36330
C3216       C  0.77925000  0.88837049  0.06149716     0.36330
N3217       N  0.68423357  0.87914953  0.18276826    -0.38490
N3218       N  0.79178120  0.89420320  0.03958155    -0.38490
N3219       N  0.67627498  0.82037712  0.11719963    -0.37930
N3220       N  0.82551640  0.92463638  0.12196522    -0.37940
C3221       C  0.75357318  0.62411477  0.32345749    -0.04600
C3222       C  0.78350109  0.62398896  0.34423348    -0.01720
C3223       C  0.79208214  0.64699886  0.36400867     0.03270
C3224       C  0.77076814  0.67012466  0.36485317    -0.04600
C3225       C  0.74265547  0.67147383  0.34290750    -0.01710
C3226       C  0.73411326  0.64887963  0.32227281     0.03270
C3227       C  0.80570946  0.60002225  0.34690877     0.37920
C3228       C  0.72376562  0.69715993  0.34034466     0.37910
C3229       C  0.70578850  0.65180119  0.29941983     0.36330
C3230       C  0.82295175  0.64671438  0.38396772     0.36330
N3231       N  0.68322357  0.65464873  0.28116153    -0.38490
N3232       N  0.84779698  0.64651216  0.39949854    -0.38490
N3233       N  0.70966477  0.71815295  0.33789460    -0.37930
N3234       N  0.82373983  0.58114716  0.34955908    -0.37940
C3235       C  0.64840774  0.73536603  0.37584557    -0.04600
C3236       C  0.63553875  0.71043732  0.36267384    -0.01720
C3237       C  0.62558428  0.70835902  0.33045508     0.03270
C3238       C  0.62771106  0.73145632  0.31057349    -0.04600
C3239       C  0.64458646  0.75509884  0.32325903    -0.01710
C3240       C  0.65406296  0.75734196  0.35575222     0.03270
C3241       C  0.63326017  0.68635798  0.38219770     0.37920
C3242       C  0.65657658  0.77533084  0.30288702     0.37910
C3243       C  0.67324622  0.78086038  0.36776403     0.36330
C3244       C  0.61545256  0.68146773  0.31783142     0.36330
N3245       N  0.68913879  0.79936597  0.37702846    -0.38490
N3246       N  0.60785644  0.65980248  0.30812996    -0.38490
N3247       N  0.66754831  0.79105992  0.28691820    -0.37930
N3248       N  0.63154398  0.66714078  0.39768563    -0.37940
C3249       C  0.88338915  0.78067531  0.14696872    -0.04600
C3250       C  0.88978475  0.75951812  0.12520790    -0.01720
C3251       C  0.88011433  0.76287654  0.09277782     0.03270
C3252       C  0.86336412  0.78748321  0.08119224    -0.04600
C3253       C  0.85900684  0.80922864  0.10332084    -0.01710
C3254       C  0.86766274  0.80535928  0.13566514     0.03270
C3255       C  0.90846276  0.73489065  0.13578482     0.37920
C3256       C  0.85074766  0.83723787  0.09335271     0.37910
C3257       C  0.86133482  0.82757996  0.15756162     0.36330
C3258       C  0.89092059  0.74185437  0.07151416     0.36330
N3259       N  0.85630607  0.84528259  0.17496909    -0.38490
N3260       N  0.90092101  0.72497260  0.05539158    -0.38490
N3261       N  0.84548073  0.86008820  0.08641103    -0.37930
N3262       N  0.92345238  0.71525428  0.14403316    -0.37940
C3263       C  0.89755069  0.61094860  0.02746509    -0.04600
C3264       C  0.87394688  0.61548051  0.50102604    -0.01720
C3265       C  0.84863050  0.63588961  0.50194258     0.03270
C3266       C  0.84703489  0.65314441  0.02829857    -0.04600
C3267       C  0.86809357  0.64713002  0.05549305    -0.01710
C3268       C  0.89223178  0.62535052  0.05538530     0.03270
C3269       C  0.87414185  0.59882123  0.47269970     0.37920
C3270       C  0.86503388  0.66354512  0.08347785     0.37910
C3271       C  0.91101450  0.61727287  0.08406304     0.36330
C3272       C  0.82423410  0.63954194  0.47532677     0.36330
N3273       N  0.92526867  0.60978041  0.10699619    -0.38490
N3274       N  0.80431464  0.64231931  0.45451247    -0.38490
N3275       N  0.86245584  0.67668090  0.10580269    -0.37930
N3276       N  0.87368154  0.58568472  0.44997770    -0.37940
C3277       C  0.65943891  0.87637743  0.43015263    -0.04600
C3278       C  0.63351070  0.87795872  0.40573964    -0.01720
C3279       C  0.60582698  0.89622892  0.40781327     0.03270
C3280       C  0.60239469  0.91196917  0.43526007    -0.04600
C3281       C  0.63001610  0.91210637  0.45855500    -0.01710
C3282       C  0.65813882  0.89463522  0.45581181     0.03270
C3283       C  0.63437699  0.85950458  0.37908371     0.37920
C3284       C  0.62999387  0.92934314  0.48634998     0.37910
C3285       C  0.68467450  0.89382165  0.48092483     0.36330
C3286       C  0.58016022  0.89786925  0.38212985     0.36330
N3287       N  0.70570200  0.89316767  0.50101852    -0.38490
N3288       N  0.55984510  0.89942907  0.36147106    -0.38490
N3289       N  0.63065630  0.94201081  0.50938940    -0.37930
N3290       N  0.63474509  0.84457865  0.35790254    -0.37940
C3291       C  0.64044527  0.50342054  0.41973309    -0.04600
C3292       C  0.63033690  0.48804384  0.39210899    -0.01720
C3293       C  0.65278338  0.98099288  0.37002947     0.03270
C3294       C  0.68417915  0.99329715  0.37124270    -0.04600
C3295       C  0.69496262  0.50825498  0.39886453    -0.01710
C3296       C  0.67368728  0.51233729  0.42337769     0.03270
C3297       C  0.59584679  0.48218457  0.38344337     0.37920
C3298       C  0.72720173  0.52061741  0.40150278     0.37910
C3299       C  0.68517019  0.52769683  0.45126972     0.36330
C3300       C  0.64261485  0.96158461  0.34497813     0.36330
N3301       N  0.69432835  0.53993882  0.47361133    -0.38490
N3302       N  0.63420302  0.94613219  0.32515773    -0.38490
N3303       N  0.75298216  0.53053072  0.40360822    -0.37930
N3304       N  0.56850831  0.47860601  0.37452288    -0.37940
C3305       C  0.84044094  0.00984184  0.03726094    -0.04600
C3306       C  0.82662332  0.53678505  0.04084683    -0.01720
C3307       C  0.80761971  0.54329113  0.06613763     0.03270
C3308       C  0.79580760  0.52197598  0.08388128    -0.04600
C3309       C  0.80238828  0.99442733  0.07460658    -0.01710
C3310       C  0.82682893  0.98832791  0.05379244     0.03270
C3311       C  0.82554763  0.55595465  0.01557934     0.37920
C3312       C  0.78091959  0.97322267  0.08373051     0.37910
C3313       C  0.83717597  0.95991015  0.04864713     0.36330
C3314       C  0.79956383  0.57189810  0.07329672     0.36330
N3315       N  0.84586002  0.93729698  0.04448630    -0.38490
N3316       N  0.79333257  0.59478218  0.07910271    -0.38490
N3317       N  0.76146181  0.95762502  0.08991444    -0.37930
N3318       N  0.82091713  0.57066454  0.99466362    -0.37940
C3319       C  0.50444781  0.84922639  0.11307033    -0.04600
C3320       C  0.97544280  0.85661055  0.09406665    -0.01720
C3321       C  0.97329988  0.88144416  0.07674594     0.03270
C3322       C  0.50070859  0.89900004  0.07731641    -0.04600
C3323       C  0.53072911  0.89050213  0.09446794    -0.01710
C3324       C  0.53258071  0.86578845  0.11216641     0.03270
C3325       C  0.94849779  0.83744237  0.09080640     0.37920
C3326       C  0.55952601  0.90778138  0.09512818     0.37910
C3327       C  0.56324053  0.85794670  0.13015839     0.36330
C3328       C  0.94312115  0.88839344  0.05750281     0.36330
N3329       N  0.58775287  0.85172617  0.14447043    -0.38490
N3330       N  0.91903255  0.89385738  0.04210832    -0.38490
N3331       N  0.58254407  0.92153077  0.09569309    -0.37930
N3332       N  0.92771979  0.82141884  0.08776896    -0.37940
C3333       C  0.99555779  0.66003337  0.34610080    -0.04600
C3334       C  0.96855101  0.64187972  0.34265596    -0.01720
C3335       C  0.96727201  0.61901092  0.36286515     0.03270
C3336       C  0.99337462  0.61359996  0.38630484    -0.04600
C3337       C  0.01937621  0.63268638  0.39082021    -0.01710
C3338       C  0.01986337  0.65612464  0.37137224     0.03270
C3339       C  0.94209676  0.64656788  0.31820510     0.37920
C3340       C  0.54516852  0.62868152  0.41608421     0.37910
C3341       C  0.54354221  0.67775718  0.37884567     0.36330
C3342       C  0.93940572  0.60061303  0.35897682     0.36330
N3343       N  0.56114575  0.69595064  0.38496985    -0.38490
N3344       N  0.91710508  0.58599287  0.35599234    -0.38490
N3345       N  0.56573677  0.62549594  0.43627485    -0.37930
N3346       N  0.92075708  0.65039030  0.29891069    -0.37940
C3347       C  0.65912137  0.61150057  0.17132576    -0.04600
C3348       C  0.67772450  0.62707446  0.15297289    -0.01720
C3349       C  0.66133643  0.64456907  0.13063184     0.03270
C3350       C  0.62541688  0.64669960  0.12764694    -0.04600
C3351       C  0.61073781  0.63884163  0.15468179    -0.01710
C3352       C  0.62648363  0.61915448  0.17479205     0.03270
C3353       C  0.71348356  0.62288137  0.15519415     0.37920
C3354       C  0.58475864  0.65470163  0.16699929     0.37910
C3355       C  0.60908220  0.60692922  0.19892565     0.36330
C3356       C  0.68287449  0.65672081  0.10980520     0.35830
N3357       N  0.59526331  0.59735676  0.21827957    -0.38490
N3358       N  0.70228173  0.66484791  0.09443557    -0.38490
N3359       N  0.56512196  0.66601733  0.18026969    -0.37930
N3360       N  0.74182496  0.61947639  0.15680141    -0.37940
C3361       C  0.56735026  0.66221826  0.09461658    -0.04600
C3362       C  0.55382643  0.68658852  0.07750404    -0.01720
C3363       C  0.52423510  0.69900178  0.08523420     0.03270
C3364       C  0.50998977  0.68875805  0.11023302    -0.04600
C3365       C  0.51380758  0.66019422  0.11568246    -0.01710
C3366       C  0.54326970  0.64673544  0.10870940     0.03270
C3367       C  0.56782291  0.69932365  0.05154187     0.37920
C3368       C  0.49086222  0.64653786  0.13369800     0.37910
C3369       C  0.54892322  0.61826790  0.11860264     0.36330
C3370       C  0.51042041  0.72416155  0.07069680     0.36330
N3371       N  0.55253253  0.59586514  0.12772850    -0.38490
N3372       N  0.49928594  0.74422491  0.05923024    -0.38490
N3373       N  0.47290161  0.63583816  0.14866697    -0.37930
N3374       N  0.57756187  0.71027494  0.03063412    -0.37940
C3375       C  0.66659199  0.71334033  0.06400063    -0.04600
C3376       C  0.65386800  0.69372830  0.04172841    -0.01720
C3377       C  0.63658413  0.67170092  0.05144132     0.03270
C3378       C  0.62293868  0.67422167  0.08057012    -0.04600
C3379       C  0.62787025  0.69964168  0.09851020    -0.01710
C3380       C  0.65180801  0.71793786  0.09123817     0.03270
C3381       C  0.65858169  0.69541235  0.50892681     0.37920
C3382       C  0.61153720  0.70602379  0.12628867     0.37910
C3383       C  0.66247181  0.74043465  0.11238426     0.36330
C3384       C  0.63626134  0.64704992  0.03165524     0.36330
N3385       N  0.67101246  0.75815795  0.12944226    -0.38490
N3386       N  0.63721097  0.62795793  0.01515254    -0.38490
N3387       N  0.59975306  0.71235140  0.14873451    -0.37930
N3388       N  0.66062031  0.69508469  0.48240891    -0.37940
C3389       C  0.60360689  0.62297943  0.07643511    -0.04600
C3390       C  0.57753576  0.61684931  0.05285793    -0.01720
C3391       C  0.56625708  0.58973759  0.04949901     0.03270
C3392       C  0.57945772  0.56953060  0.07065115    -0.04600
C3393       C  0.60973290  0.57375657  0.08778721    -0.01710
C3394       C  0.62377640  0.59984943  0.08715318     0.03270
C3395       C  0.56291591  0.63722304  0.03102055     0.37920
C3396       C  0.62736517  0.55062018  0.10332826     0.37910
C3397       C  0.65898568  0.59993000  0.08509140     0.36330
C3398       C  0.54227875  0.58245957  0.02362462     0.36330
N3399       N  0.68702277  0.59867774  0.08250311    -0.38490
N3400       N  0.02389087  0.57678821  0.00244828    -0.38490
N3401       N  0.64049830  0.53147456  0.11514684    -0.37930
N3402       N  0.55053828  0.65173075  0.01198030    -0.37940
C3403       C  0.90447933  0.94618857  0.39404971    -0.04600
C3404       C  0.91237356  0.92256609  0.41246755    -0.01720
C3405       C  0.90007451  0.89674765  0.40166463     0.03270
C3406       C  0.88183756  0.89565119  0.37209014    -0.04600
C3407       C  0.86364388  0.92043875  0.36353487    -0.01710
C3408       C  0.87748213  0.94586198  0.37163855     0.03270
C3409       C  0.93462504  0.92456284  0.44079247     0.37920
C3410       C  0.82905195  0.91984971  0.35233425     0.37910
C3411       C  0.86461018  0.97105214  0.35652367     0.36330
C3412       C  0.90734724  0.87231953  0.42025733     0.36330
N3413       N  0.85451135  0.99110750  0.34429512    -0.38490
N3414       N  0.91338059  0.85374308  0.43662836    -0.38490
N3415       N  0.80088074  0.91864273  0.34571514    -0.37930
N3416       N  0.45244909  0.92627751  0.46331595    -0.37940
C3417       C  0.85808401  0.84867033  0.36428207    -0.04600
C3418       C  0.82478394  0.85624070  0.36660525    -0.01720
C3419       C  0.80061271  0.83733714  0.35608095     0.03270
C3420       C  0.80859197  0.80918132  0.36080851    -0.04600
C3421       C  0.84168855  0.80059464  0.35970690    -0.01710
C3422       C  0.86626049  0.82008163  0.36718415     0.03270
C3423       C  0.81736600  0.87428255  0.39220334     0.37920
C3424       C  0.85025210  0.77138284  0.35695736     0.37910
C3425       C  0.89609369  0.81088176  0.38548567     0.36330
C3426       C  0.76655158  0.84653256  0.34960473     0.36330
N3427       N  0.91936824  0.80260097  0.40032035    -0.38490
N3428       N  0.73937808  0.85396165  0.34447374    -0.38490
N3429       N  0.85699494  0.74805626  0.35493779    -0.37930
N3430       N  0.81146494  0.88834990  0.41299696    -0.37940
C3431       C  0.82625356  0.91385926  0.27960970    -0.04600
C3432       C  0.86009712  0.91963713  0.28447788    -0.01720
C3433       C  0.88064563  0.90154503  0.30259813     0.03270
C3434       C  0.86599617  0.87926283  0.31717747    -0.04600
C3435       C  0.83634844  0.86884849  0.30143349    -0.01710
C3436       C  0.81493270  0.88734217  0.28468428     0.03270
C3437       C  0.87306729  0.94522955  0.27356760     0.37920
C3438       C  0.83107611  0.83944527  0.29673519     0.37910
C3439       C  0.78148947  0.87957714  0.27388426     0.36330
C3440       C  0.91545829  0.90758473  0.30790116     0.36330
N3441       N  0.75476716  0.87336316  0.26543044    -0.38490
N3442       N  0.94309963  0.91316238  0.31028721    -0.38490
N3443       N  0.82674549  0.81616095  0.29136519    -0.37930
N3444       N  0.88330502  0.96560640  0.26485709    -0.37940
C3445       C  0.91424205  0.85570278  0.34339812    -0.04600
C3446       C  0.94602578  0.85884458  0.36027329    -0.01720
C3447       C  0.96982875  0.83709443  0.35922037     0.03270
C3448       C  0.96145647  0.81253186  0.34264258    -0.04600
C3449       C  0.92888241  0.80988970  0.32843305    -0.01710
C3450       C  0.91162554  0.83379715  0.32134882     0.03270
C3451       C  0.95826339  0.88540914  0.37107186     0.37920
C3452       C  0.91428581  0.78430675  0.31603764     0.37910
C3453       C  0.90356942  0.83860620  0.28831093     0.36330
C3454       C  0.00343373  0.84033786  0.37329020     0.36330
N3455       N  0.89771911  0.84209751  0.26182338    -0.38490
N3456       N  0.03023154  0.84278820  0.38449822    -0.38490
N3457       N  0.90253244  0.76412732  0.30573604    -0.37930
N3458       N  0.97063980  0.90598365  0.37904614    -0.37940
C3459       C  0.88068231  0.86969572  0.85005956    -0.01750
C3460       C  0.60453211  0.65132352  0.59471860    -0.01750
C3461       C  0.56942335  0.92585377  0.94091933     0.43190
N3462       N  0.53456001  0.96122505  0.94060198     0.02080
C3463       C  0.52856319  0.54110563  0.57214716    -0.05790
H3464       H  0.95431439  0.95155368  0.57346644     0.07580
C3465       C  0.87990026  0.01550875  0.98970738    -0.06140
Co3466     Co  0.54383976  0.98196104  0.00468540     0.74180
N3467       N  0.98691456  0.96888626  0.54229506    -0.25320
Co3468     Co  0.97171355  0.01094236  0.53487412     0.74070
C3469       C  0.87090639  0.00447844  0.01970250     0.43300
N3470       N  0.94254762  0.00357958  0.92769135     0.01700
N3471       N  0.92418372  0.00141303  0.51691802     0.01800
N3472       N  0.57319608  0.52341153  0.55093868    -0.46170
H3473       H  0.56944957  0.92175671  0.99343756     0.07560
N3474       N  0.51400372  0.95877712  0.53118650     0.02090
N3475       N  0.95568396  0.55349606  0.52624877     0.01830
C3476       C  0.92837753  0.59300431  0.52482953     0.43430
N3477       N  0.96889839  0.99199102  0.91670237    -0.24780
C3478       C  0.60898586  0.50182885  0.97293573    -0.05700
N3479       N  0.55300586  0.94571441  0.92272838    -0.45880
N3480       N  0.93918881  0.57120344  0.54353660    -0.46110
C3481       C  0.61493069  0.51282704  0.94175459     0.43210
N3482       N  0.54600103  0.51116884  0.53972337     0.02080
N3483       N  0.00222900  0.54481470  0.92327337    -0.24800
N3484       N  0.53982753  0.95316524  0.96972014    -0.25290
N3485       N  0.97591999  0.55606071  0.93436305     0.01720
H3486       H  0.03619316  0.56009872  0.89219580     0.07610
H3487       H  0.93470886  0.59772914  0.97321169     0.07640
N3488       N  0.51934840  0.52154734  0.55129685    -0.25340
N3489       N  0.91324923  0.01270347  0.99002216    -0.24950
N3490       N  0.56281027  0.51508050  0.94922569     0.02080
C3491       C  0.49860466  0.92540333  0.55892121     0.43480
C3492       C  0.95918388  0.97138628  0.89749544    -0.06210
N3493       N  0.95343097  0.56183810  0.99720392    -0.24950
H3494       H  0.86432663  0.02702340  0.97250545     0.07630
N3495       N  0.52175207  0.93325151  0.54070532    -0.46180
H3496       H  0.97539678  0.95750461  0.88606756     0.07610
C3497       C  0.99340361  0.58814667  0.90601571     0.43310
C3498       C  0.55841153  0.93006281  0.97168934    -0.05700
Co3499     Co  0.51661232  0.50336460  0.93199929     0.73820
N3500       N  0.91495486  0.99117998  0.91784775    -0.45890
C3501       C  0.56405857  0.54289453  0.57101729     0.43580
N3502       N  0.58466823  0.52089473  0.92962727    -0.45880
Co3503     Co  0.94635982  0.53351679  0.96179087     0.73890
C3504       C  0.94100717  0.58740692  0.99502158    -0.06210
C3505       C  0.97527812  0.94911087  0.56002008    -0.05770
N3506       N  0.57583436  0.50392753  0.97549650    -0.25300
N3507       N  0.90020140  0.99667724  0.53492053    -0.46060
H3508       H  0.01199621  0.55475107  0.58362941     0.07590
C3509       C  0.01511367  0.56359886  0.90526980    -0.06190
Cl3510     Cl  0.99457982  0.50731886  0.98334014    -0.49190
C3511       C  0.92364411  0.97090068  0.89861263     0.43340
H3512       H  0.62639096  0.49060458  0.98861976     0.07550
N3513       N  0.96946159  0.58166445  0.92416849    -0.45900
C3514       C  0.85054773  0.79037810  0.54669195     0.43190
N3515       N  0.82943183  0.77662181  0.00050549     0.02080
C3516       C  0.67162342  0.82533689  0.94341858    -0.05790
H3517       H  0.68652100  0.81565260  0.55734348     0.07580
C3518       C  0.72023577  0.71279560  0.54215023    -0.06140
Co3519     Co  0.77071091  0.81397522  0.97823216     0.74180
N3520       N  0.72046939  0.80941571  0.52235304    -0.25320
Co3521     Co  0.70117976  0.78099616  0.98773828     0.74070
C3522       C  0.69594317  0.72794725  0.55886743     0.43300
N3523       N  0.78685009  0.70435125  0.00247542     0.01700
N3524       N  0.70533342  0.75096843  0.51970880     0.01800
N3525       N  0.71608576  0.85175522  0.94039822    -0.46170
H3526       H  0.81698119  0.82936694  0.54281916     0.07560
N3527       N  0.74852611  0.82105986  0.51820439     0.02090
N3528       N  0.68393726  0.75307711  0.95272774     0.01830
C3529       C  0.66136682  0.73613065  0.90947826     0.43430
N3530       N  0.81366081  0.71746211  0.99713390    -0.24780
C3531       C  0.78097243  0.81559855  0.91083514    -0.05700
N3532       N  0.85044614  0.76969911  0.52494039    -0.45880
N3533       N  0.66178082  0.75853567  0.92875748    -0.46110
C3534       C  0.79344556  0.79746703  0.88710163     0.43210
N3535       N  0.72487845  0.82731303  0.95322406     0.02080
N3536       N  0.79090550  0.72012511  0.93063979    -0.24800
N3537       N  0.81438653  0.80063112  0.00489135    -0.25290
N3538       N  0.76372110  0.70765242  0.93629688     0.01720
H3539       H  0.82168151  0.71542579  0.89241629     0.07610
H3540       H  0.69388721  0.69715956  0.91387389     0.07640
N3541       N  0.69882310  0.81234091  0.95618366    -0.25340
N3542       N  0.72200397  0.72760302  0.01678473    -0.24950
N3543       N  0.80482103  0.77983000  0.93253264     0.02080
C3544       C  0.73512368  0.84064343  0.56049475     0.43480
C3545       C  0.84007904  0.70369277  0.01042399    -0.06210
N3546       N  0.69907563  0.72888222  0.94958883    -0.24950
H3547       H  0.72912426  0.69160530  0.54502363     0.07630
N3548       N  0.75776791  0.83938402  0.53988287    -0.46180
H3549       H  0.86525199  0.70778364  0.00634230     0.07610
C3550       C  0.77404917  0.68994073  0.89212736     0.43310
C3551       C  0.82670214  0.81103185  0.53258266    -0.05700
Co3552     Co  0.81117181  0.74902034  0.96492338     0.73820
N3553       N  0.79391939  0.68102636  0.01809184    -0.45890
C3554       C  0.68267313  0.85156782  0.93251501     0.43580
N3555       N  0.80732189  0.77544665  0.90265371    -0.45880
Co3556     Co  0.74206762  0.71644736  0.97680330     0.73890
C3557       C  0.68576480  0.71657754  0.92347909    -0.06210
C3558       C  0.70971352  0.82041983  0.54869128    -0.05770
N3559       N  0.78958671  0.80350147  0.93777533    -0.25300
N3560       N  0.69017273  0.75235898  0.54509596    -0.46060
H3561       H  0.64667184  0.81930796  0.94622775     0.07590
C3562       C  0.79990470  0.70987826  0.90317375    -0.06190
Cl3563     Cl  0.75632770  0.76512074  0.97689464    -0.49190
C3564       C  0.82725710  0.67964028  0.52512344     0.43340
H3565       H  0.76617205  0.83437684  0.90819046     0.07550
N3566       N  0.75323907  0.68953994  0.91442915    -0.45900
C3567       C  0.61047245  0.73070496  0.77782000     0.43190
N3568       N  0.56819481  0.72162852  0.74480109     0.02080
C3569       C  0.98200628  0.82772227  0.66200258    -0.05790
H3570       H  0.52444850  0.86161304  0.75301818     0.07580
C3571       C  0.98033907  0.77116486  0.81554617    -0.06140
Co3572     Co  0.55036473  0.77004433  0.70164835     0.74180
N3573       N  0.53405301  0.81922279  0.73969803    -0.25320
Co3574     Co  0.98628925  0.80365068  0.72886615     0.74070
C3575       C  0.98665277  0.79954997  0.82513012     0.43300
N3576       N  0.98608726  0.71310551  0.78775917     0.01700
N3577       N  0.98152023  0.79646014  0.77509054     0.01800
N3578       N  0.52688220  0.80686906  0.64429721    -0.46170
H3579       H  0.61686647  0.77245212  0.75308110     0.07560
N3580       N  0.55982121  0.80670168  0.72891249     0.02090
N3581       N  0.93954190  0.78899862  0.71509751     0.01830
C3582       C  0.89916868  0.78019499  0.68007465     0.43430
N3583       N  0.01268894  0.70092694  0.77845376    -0.24780
C3584       C  0.52827723  0.73335816  0.64325140    -0.05700
N3585       N  0.58617675  0.71267528  0.76989566    -0.45880
N3586       N  0.92228588  0.79869612  0.68984240    -0.46110
C3587       C  0.51037700  0.70715716  0.63776328     0.43210
N3588       N  0.52006692  0.79602611  0.67114670     0.02080
N3589       N  0.97383044  0.69035443  0.72105819    -0.24800
N3590       N  0.57869925  0.74534323  0.73484514    -0.25290
N3591       N  0.94787426  0.70417562  0.72917635     0.01720
H3592       H  0.98310181  0.64789785  0.71111803     0.07610
H3593       H  0.89236302  0.73728203  0.70112507     0.07640
N3594       N  0.99454808  0.80857546  0.68229181    -0.25340
N3595       N  0.97329135  0.77205618  0.78468445    -0.24950
N3596       N  0.52491559  0.71268366  0.68645369     0.02080
C3597       C  0.57609984  0.84891451  0.74015915     0.43480
C3598       C  0.52321378  0.68115821  0.79896285    -0.06210
N3599       N  0.92950829  0.76452058  0.72326099    -0.24950
H3600       H  0.97570099  0.75393627  0.83011819     0.07630
N3601       N  0.58500221  0.82393429  0.72796789    -0.46180
H3602       H  0.54146800  0.66524166  0.79515472     0.07610
C3603       C  0.92983773  0.66222801  0.71982195     0.43310
C3604       C  0.60530561  0.75264492  0.75406087    -0.05700
Co3605     Co  0.52148279  0.70622044  0.73213301     0.73820
N3606       N  0.97686015  0.70198282  0.81352714    -0.45890
C3607       C  0.50327019  0.82661052  0.63661969     0.43580
N3608       N  0.50922189  0.69623912  0.66580645    -0.45880
Co3609     Co  0.95766821  0.73938843  0.75648633     0.73890
C3610       C  0.90393388  0.75729848  0.70246090    -0.06210
C3611       C  0.54200263  0.84552921  0.74764891    -0.05770
N3612       N  0.53594153  0.73519324  0.67425764    -0.25300
N3613       N  0.99106859  0.81309598  0.79860920    -0.46060
H3614       H  0.96320071  0.84303724  0.66641537     0.07590
C3615       C  0.96513517  0.66403431  0.71446465    -0.06190
Cl3616     Cl  0.00405008  0.75485768  0.72978067    -0.49190
C3617       C  0.99964927  0.68213750  0.82261261     0.43340
H3618       H  0.53216255  0.74941864  0.62687153     0.07550
N3619       N  0.92174007  0.68822719  0.72940739    -0.45900
C3620       C  0.70039933  0.99484913  0.84080682     0.43190
N3621       N  0.73339294  0.00336312  0.80499805     0.02080
C3622       C  0.68535457  0.56314791  0.66422688    -0.05790
H3623       H  0.66041008  0.94931556  0.67309392     0.07580
C3624       C  0.77661343  0.93703374  0.67645955    -0.06140
Co3625     Co  0.69264074  0.52859085  0.75144374     0.74180
N3626       N  0.67505528  0.98529252  0.70120852    -0.25320
Co3627     Co  0.71159435  0.00358222  0.67678817     0.74070
C3628       C  0.74797835  0.92355691  0.65999083     0.43300
N3629       N  0.79936550  0.97290905  0.74381530     0.01700
N3630       N  0.73478969  0.96528832  0.67280213     0.01800
N3631       N  0.67160958  0.57662033  0.71201433    -0.46170
H3632       H  0.65512080  0.00595466  0.80741600     0.07560
N3633       N  0.66817447  0.99379944  0.72924062     0.02090
N3634       N  0.75017483  0.52014220  0.65179624     0.01830
C3635       C  0.78189020  0.52790737  0.61470525     0.43430
N3636       N  0.79166170  0.98052546  0.77166787    -0.24780
C3637       C  0.71307365  0.58854015  0.78555227    -0.05700
N3638       N  0.73289229  0.99728749  0.83528825    -0.45880
N3639       N  0.74994069  0.52451836  0.62117421    -0.46110
C3640       C  0.74441764  0.59878986  0.80289997     0.43210
N3641       N  0.68303587  0.55093682  0.71178589     0.02080
N3642       N  0.80976277  0.53741470  0.75620077    -0.24800
N3643       N  0.70317143  0.00657482  0.79148788    -0.25290
N3644       N  0.81635198  0.52931207  0.72802624     0.01720
H3645       H  0.82736418  0.57174897  0.78560728     0.07610
H3646       H  0.82821510  0.51929318  0.64756815     0.07640
N3647       N  0.69086781  0.54235131  0.68409784    -0.25340
N3648       N  0.76607947  0.96271513  0.68337708    -0.24950
N3649       N  0.75122043  0.55739286  0.78449819     0.02080
C3650       C  0.64058348  0.95578849  0.72070240     0.43480
C3651       C  0.79417714  0.95839749  0.78973422    -0.06210
N3652       N  0.78069790  0.51841820  0.66509182    -0.24950
H3653       H  0.80150231  0.92901280  0.68155705     0.07630
N3654       N  0.64829982  0.97638227  0.74188957    -0.46180
H3655       H  0.78779289  0.95838879  0.81333026     0.07610
C3656       C  0.84674369  0.56513645  0.73775587     0.43310
C3657       C  0.68128070  0.00134735  0.81153890    -0.05700
Co3658     Co  0.77252578  0.51925691  0.78000205     0.73820
N3659       N  0.80667578  0.94645418  0.74158542    -0.45890
C3660       C  0.67254359  0.58533746  0.68292018     0.43580
N3661       N  0.76595524  0.57774822  0.80051458    -0.45880
Co3662     Co  0.79146559  0.99618647  0.70541489     0.73890
C3663       C  0.80193669  0.52353500  0.64411310    -0.06210
C3664       C  0.65843591  0.96183051  0.69383444    -0.05770
N3665       N  0.72001087  0.56251670  0.77486585    -0.25300
N3666       N  0.72313642  0.94268040  0.65819284    -0.46060
H3667       H  0.69055010  0.56295754  0.64012039     0.07590
C3668       C  0.82800085  0.55983794  0.76430223    -0.06190
Cl3669     Cl  0.74200284  0.01212304  0.72835973    -0.49190
C3670       C  0.80372008  0.93572554  0.76936583     0.43340
H3671       H  0.68886932  0.59828625  0.78313782     0.07550
N3672       N  0.83816313  0.54526535  0.71620943    -0.45900
C3673       C  0.86765476  0.58973099  0.73250963    -0.04600
C3674       C  0.85569979  0.61704141  0.73675191    -0.01720
C3675       C  0.87535243  0.64024625  0.73162517     0.03270
C3676       C  0.90828941  0.63682268  0.72298932    -0.04600
C3677       C  0.91987832  0.60895824  0.71853344    -0.01710
C3678       C  0.89954563  0.58592997  0.72283803     0.03270
C3679       C  0.82238283  0.62146574  0.74543703     0.37920
C3680       C  0.95278853  0.60279277  0.71002107     0.37910
C3681       C  0.91198619  0.55788085  0.71819421     0.36330
C3682       C  0.86079177  0.66765250  0.73536615     0.36330
N3683       N  0.92183771  0.53552872  0.71447803    -0.38490
N3684       N  0.84886133  0.68936871  0.73851292    -0.38490
N3685       N  0.97879086  0.59626478  0.70347631    -0.37930
N3686       N  0.79584125  0.62510927  0.75232558    -0.37940
C3687       C  0.59268316  0.87638480  0.73514276    -0.04600
C3688       C  0.57778378  0.89633250  0.71396595    -0.01720
C3689       C  0.59346710  0.92189086  0.70914522     0.03270
C3690       C  0.62351037  0.92891978  0.72655716    -0.04600
C3691       C  0.63801441  0.90940979  0.74823926    -0.01710
C3692       C  0.62298684  0.88338718  0.75220339     0.03270
C3693       C  0.54601332  0.89080883  0.69709000     0.37920
C3694       C  0.66904963  0.91585276  0.76603978     0.37910
C3695       C  0.63850100  0.86415417  0.77472382     0.36330
C3696       C  0.57841301  0.94120593  0.68626665     0.36330
N3697       N  0.65133468  0.84918948  0.79298339    -0.38490
N3698       N  0.56649060  0.95659977  0.66793365    -0.38490
N3699       N  0.69378272  0.92109953  0.78025271    -0.37930
N3700       N  0.52043207  0.88674325  0.68384123    -0.37940
C3701       C  0.74797572  0.89903819  0.63863055    -0.04600
C3702       C  0.77043106  0.89746265  0.61584689    -0.01720
C3703       C  0.76304525  0.88132933  0.58884486     0.03270
C3704       C  0.73825151  0.86075099  0.58769598    -0.04600
C3705       C  0.71888091  0.85935768  0.61327711    -0.01710
C3706       C  0.72253644  0.87948005  0.63766976     0.03270
C3707       C  0.80097422  0.91274252  0.61940749     0.37920
C3708       C  0.69521982  0.83761767  0.61501999     0.37910
C3709       C  0.70111619  0.87933539  0.66267383     0.36330
C3710       C  0.77927753  0.88835221  0.56151955     0.36330
N3711       N  0.68421208  0.87916386  0.68275764    -0.38490
N3712       N  0.79181848  0.89418279  0.53960879    -0.38490
N3713       N  0.67624211  0.82039665  0.61718561    -0.37930
N3714       N  0.82554165  0.92460451  0.62199511    -0.37940
C3715       C  0.75357542  0.62410916  0.82345997    -0.04600
C3716       C  0.78350259  0.62398206  0.84423698    -0.01720
C3717       C  0.79208403  0.64699131  0.86401316     0.03270
C3718       C  0.77077096  0.67011774  0.86485803    -0.04600
C3719       C  0.74265856  0.67146783  0.84291196    -0.01710
C3720       C  0.73411598  0.64887424  0.82227631     0.03270
C3721       C  0.80570979  0.60001457  0.84691206     0.37920
C3722       C  0.72377008  0.69715457  0.84034904     0.37910
C3723       C  0.70579147  0.65179659  0.79942315     0.36330
C3724       C  0.82295374  0.64670590  0.88397198     0.36330
N3725       N  0.68322675  0.65464447  0.78116469    -0.38490
N3726       N  0.84779924  0.64650289  0.89950237    -0.38490
N3727       N  0.70967056  0.71814817  0.83789874    -0.37930
N3728       N  0.82373904  0.58113870  0.84956172    -0.37940
C3729       C  0.64841271  0.73535953  0.87584798    -0.04600
C3730       C  0.63554309  0.71043113  0.86267612    -0.01720
C3731       C  0.62558782  0.70835330  0.83045741     0.03270
C3732       C  0.62771510  0.73145064  0.81057592    -0.04600
C3733       C  0.64459152  0.75509272  0.82326162    -0.01710
C3734       C  0.65406876  0.75733529  0.85575475     0.03270
C3735       C  0.63326510  0.68635161  0.88219980     0.37920
C3736       C  0.65658131  0.77532519  0.80288995     0.37910
C3737       C  0.67325422  0.78085254  0.86776647     0.36330
C3738       C  0.61545446  0.68146245  0.81783372     0.36330
N3739       N  0.68914866  0.79935714  0.87703060    -0.38490
N3740       N  0.60785703  0.65979749  0.80813229    -0.38490
N3741       N  0.66755266  0.79105497  0.78692166    -0.37930
N3742       N  0.63154954  0.66713428  0.89768768    -0.37940
C3743       C  0.88339615  0.78067874  0.64697044    -0.04600
C3744       C  0.88977895  0.75951467  0.62521330    -0.01720
C3745       C  0.88010842  0.76287037  0.59278287     0.03270
C3746       C  0.86337094  0.78748092  0.58119328    -0.04600
C3747       C  0.85902930  0.80923326  0.60331692    -0.01710
C3748       C  0.86768413  0.80536724  0.63566188     0.03270
C3749       C  0.90844468  0.73488210  0.63579353     0.37920
C3750       C  0.85079002  0.83724383  0.59334094     0.37910
C3751       C  0.86136985  0.82759556  0.65755322     0.36330
C3752       C  0.89090260  0.74184014  0.57152275     0.36330
N3753       N  0.85635195  0.84530445  0.67495645    -0.38490
N3754       N  0.90089480  0.72495139  0.55540395    -0.38490
N3755       N  0.84553961  0.86009421  0.58639092    -0.37930
N3756       N  0.92342477  0.71524159  0.64404396    -0.37940
C3757       C  0.89753445  0.61094226  0.52746980    -0.04600
C3758       C  0.87396099  0.61548737  0.00102300    -0.01720
C3759       C  0.84864356  0.63589536  0.00194243     0.03270
C3760       C  0.84702047  0.65313929  0.52829800    -0.04600
C3761       C  0.86807485  0.64712372  0.55549482    -0.01710
C3762       C  0.89221277  0.62534392  0.55538946     0.03270
C3763       C  0.87415286  0.59882815  0.97269631     0.37920
C3764       C  0.86501103  0.66353795  0.58347952     0.37910
C3765       C  0.91099310  0.61726666  0.58406870     0.36330
C3766       C  0.82424355  0.63954635  0.97532926     0.36330
N3767       N  0.92524526  0.60977543  0.60700342    -0.38490
N3768       N  0.80432098  0.64232243  0.95451733    -0.38490
N3769       N  0.86242955  0.67667286  0.60580436    -0.37930
N3770       N  0.87368960  0.58569133  0.94997435    -0.37940
C3771       C  0.65942981  0.87636612  0.93014340    -0.04600
C3772       C  0.63349626  0.87793917  0.90573465    -0.01720
C3773       C  0.60581094  0.89620755  0.90780828     0.03270
C3774       C  0.60238260  0.91195393  0.93525154    -0.04600
C3775       C  0.63000856  0.91209909  0.95854125    -0.01710
C3776       C  0.65813308  0.89463028  0.95579738     0.03270
C3777       C  0.63435889  0.85947858  0.87908369     0.37920
C3778       C  0.62998893  0.92934112  0.98633235     0.37910
C3779       C  0.68467439  0.89382570  0.98090541     0.36330
C3780       C  0.58013862  0.89783961  0.88212905     0.36330
N3781       N  0.70570643  0.89317894  0.00099516    -0.38490
N3782       N  0.55981910  0.89939283  0.86147341    -0.38490
N3783       N  0.63065362  0.94201274  0.00936916    -0.37930
N3784       N  0.63472359  0.84454774  0.85790644    -0.37940
C3785       C  0.64044466  0.50341051  0.91972150    -0.04600
C3786       C  0.63034417  0.48802750  0.89210008    -0.01720
C3787       C  0.65279614  0.98097916  0.87002708     0.03270
C3788       C  0.68418697  0.99329203  0.87124111    -0.04600
C3789       C  0.69496314  0.50825333  0.89885761    -0.01710
C3790       C  0.67368365  0.51233482  0.92336754     0.03270
C3791       C  0.59585682  0.48215891  0.88343320     0.37920
C3792       C  0.72719805  0.52062328  0.90149603     0.37910
C3793       C  0.68515860  0.52770119  0.95125705     0.36330
C3794       C  0.64263781  0.96156567  0.84497799     0.36330
N3795       N  0.69431043  0.53994871  0.97359661    -0.38490
N3796       N  0.63423345  0.94610916  0.82515940    -0.38490
N3797       N  0.75297509  0.53054260  0.90360141    -0.37930
N3798       N  0.56852054  0.47857248  0.87451081    -0.37940
C3799       C  0.84044292  0.00983719  0.53725719    -0.04600
C3800       C  0.82661472  0.53677704  0.54083442    -0.01720
C3801       C  0.80761280  0.54328382  0.56612629     0.03270
C3802       C  0.79580632  0.52196928  0.58387460    -0.04600
C3803       C  0.80240201  0.99441995  0.57461243    -0.01710
C3804       C  0.82684139  0.98832283  0.55379644     0.03270
C3805       C  0.82553329  0.55594380  0.51556362     0.37920
C3806       C  0.78094691  0.97321053  0.58374912     0.37910
C3807       C  0.83719752  0.95990631  0.54865732     0.36330
C3808       C  0.79955374  0.57189076  0.57328227     0.36330
N3809       N  0.84588764  0.93729395  0.54450152    -0.38490
N3810       N  0.79332016  0.59477489  0.57908586    -0.38490
N3811       N  0.76149867  0.95760864  0.58994358    -0.37930
N3812       N  0.82089881  0.57065102  0.49464576    -0.37940
C3813       C  0.50445950  0.84922501  0.61307083    -0.04600
C3814       C  0.97545332  0.85660894  0.59406315    -0.01720
C3815       C  0.97330917  0.88144349  0.57674363     0.03270
C3816       C  0.50071452  0.89899929  0.57731701    -0.04600
C3817       C  0.53073388  0.89050685  0.59447454    -0.01710
C3818       C  0.53258824  0.86579304  0.61217309     0.03270
C3819       C  0.94851462  0.83743459  0.59079364     0.37920
C3820       C  0.55952671  0.90779132  0.59513982     0.37910
C3821       C  0.56324720  0.85795556  0.63016907     0.36330
C3822       C  0.94313273  0.88838943  0.55749551     0.36330
N3823       N  0.58775903  0.85173811  0.64448386    -0.38490
N3824       N  0.91904595  0.89385065  0.54209694    -0.38490
N3825       N  0.58254161  0.92154479  0.59570850    -0.37930
N3826       N  0.92774324  0.82140531  0.58774798    -0.37940
C3827       C  0.99556136  0.66002399  0.84609328    -0.04600
C3828       C  0.96855353  0.64187147  0.84264751    -0.01720
C3829       C  0.96727341  0.61900172  0.86285522     0.03270
C3830       C  0.99337573  0.61358880  0.88629456    -0.04600
C3831       C  0.01937861  0.63267394  0.89081082    -0.01710
C3832       C  0.01986715  0.65611295  0.87136410     0.03270
C3833       C  0.94209924  0.64656181  0.81819727     0.37920
C3834       C  0.54516442  0.62865956  0.91606949     0.37910
C3835       C  0.54354224  0.67773854  0.87883681     0.36330
C3836       C  0.93940615  0.60060491  0.85896583     0.36330
N3837       N  0.56114764  0.69593041  0.88496270    -0.38490
N3838       N  0.91710479  0.58598555  0.85598050    -0.38490
N3839       N  0.56573246  0.62547133  0.93625978    -0.37930
N3840       N  0.92075952  0.65038601  0.79890339    -0.37940
C3841       C  0.65914015  0.61150041  0.67133028    -0.04600
C3842       C  0.67774438  0.62706596  0.65297018    -0.01720
C3843       C  0.66135759  0.64456319  0.63063146     0.03270
C3844       C  0.62543867  0.64670115  0.62765334    -0.04600
C3845       C  0.61076357  0.63885296  0.65469409    -0.01710
C3846       C  0.62650843  0.61916704  0.67480680     0.03270
C3847       C  0.71350161  0.62286230  0.65518259     0.37920
C3848       C  0.58478312  0.65471454  0.66700708     0.37910
C3849       C  0.60911169  0.60695419  0.69895137     0.36330
C3850       C  0.68289443  0.65671136  0.60980104     0.35830
N3851       N  0.59529666  0.59739193  0.71831413    -0.38490
N3852       N  0.70229952  0.66483631  0.59442766    -0.38490
N3853       N  0.56514487  0.66603201  0.68027382    -0.37930
N3854       N  0.74184149  0.61944869  0.65678274    -0.37940
C3855       C  0.56736896  0.66222442  0.59462854    -0.04600
C3856       C  0.55384435  0.68659395  0.57751408    -0.01720
C3857       C  0.52424657  0.69900165  0.58523548     0.03270
C3858       C  0.50999798  0.68875717  0.61023152    -0.04600
C3859       C  0.51381990  0.66019418  0.61568264    -0.01710
C3860       C  0.54328842  0.64673994  0.60872008     0.03270
C3861       C  0.56784519  0.69933407  0.55155735     0.37920
C3862       C  0.49086959  0.64653507  0.63369024     0.37910
C3863       C  0.54894668  0.61827504  0.61862133     0.36330
C3864       C  0.51042855  0.72415871  0.57069425     0.36330
N3865       N  0.55255948  0.59587479  0.62775426    -0.38490
N3866       N  0.49929140  0.74421986  0.55922462    -0.38490
N3867       N  0.47290439  0.63583290  0.64865228    -0.37930
N3868       N  0.57758654  0.71028999  0.53065380    -0.37940
C3869       C  0.66661023  0.71334444  0.56401074    -0.04600
C3870       C  0.65388183  0.69373453  0.54173780    -0.01720
C3871       C  0.63660084  0.67170619  0.55145143     0.03270
C3872       C  0.62295743  0.67422616  0.58058111    -0.04600
C3873       C  0.62789299  0.69964461  0.59852347    -0.01710
C3874       C  0.65183231  0.71793932  0.59125183     0.03270
C3875       C  0.65857731  0.69540233  0.00891918     0.37920
C3876       C  0.61155868  0.70602888  0.62630050     0.37910
C3877       C  0.66250070  0.74043425  0.61239901     0.36330
C3878       C  0.63628058  0.64705488  0.53166594     0.36330
N3879       N  0.67104568  0.75815664  0.62945661    -0.38490
N3880       N  0.63723175  0.62796258  0.51516389    -0.38490
N3881       N  0.59977298  0.71236078  0.64874418    -0.37930
N3882       N  0.66062391  0.69507101  0.98240256    -0.37940
C3883       C  0.60361981  0.62298527  0.57644142    -0.04600
C3884       C  0.57754527  0.61685994  0.55286625    -0.01720
C3885       C  0.56625393  0.58975163  0.54951230     0.03270
C3886       C  0.57945192  0.56954188  0.57066250    -0.04600
C3887       C  0.60973189  0.57376157  0.58779336    -0.01710
C3888       C  0.62378310  0.59985138  0.58715786     0.03270
C3889       C  0.56293550  0.63723545  0.53102587     0.37920
C3890       C  0.62736126  0.55062151  0.60333000     0.37910
C3891       C  0.65899175  0.59992414  0.58509077     0.36330
C3892       C  0.54226736  0.58247948  0.52364266     0.36330
N3893       N  0.68702779  0.59866586  0.58249835    -0.38490
N3894       N  0.02387077  0.57681024  0.50246778    -0.38490
N3895       N  0.64049267  0.53147354  0.61514504    -0.37930
N3896       N  0.55056688  0.65174558  0.51198359    -0.37940
C3897       C  0.90445806  0.94615446  0.89406162    -0.04600
C3898       C  0.91234650  0.92252793  0.91247419    -0.01720
C3899       C  0.90004580  0.89671165  0.90166340     0.03270
C3900       C  0.88181503  0.89562044  0.87208512    -0.04600
C3901       C  0.86362757  0.92041114  0.86353003    -0.01710
C3902       C  0.87746613  0.94583248  0.87164433     0.03270
C3903       C  0.93459654  0.92451818  0.94080052     0.37920
C3904       C  0.82903662  0.91982715  0.85232476     0.37910
C3905       C  0.86459879  0.97102645  0.85653474     0.36330
C3906       C  0.90731708  0.87227889  0.92024885     0.36330
N3907       N  0.85450359  0.99108512  0.84431103    -0.38490
N3908       N  0.91334994  0.85369723  0.93661241    -0.38490
N3909       N  0.80086544  0.91862552  0.84570219    -0.37930
N3910       N  0.45241737  0.92622271  0.96332711    -0.37940
C3911       C  0.85805141  0.84864206  0.86426437    -0.04600
C3912       C  0.82475235  0.85621830  0.86658752    -0.01720
C3913       C  0.80057528  0.83731984  0.85606033     0.03270
C3914       C  0.80854838  0.80916269  0.86078395    -0.04600
C3915       C  0.84163981  0.80057109  0.85966491    -0.01710
C3916       C  0.86621793  0.82005040  0.86715464     0.03270
C3917       C  0.81733835  0.87426038  0.89218681     0.37920
C3918       C  0.85019104  0.77135832  0.85690071     0.37910
C3919       C  0.89604216  0.81083934  0.88546227     0.36330
C3920       C  0.76651498  0.84651986  0.84959246     0.36330
N3921       N  0.91931019  0.80255091  0.90030066    -0.38490
N3922       N  0.73934210  0.85395264  0.84446800    -0.38490
N3923       N  0.85692223  0.74803046  0.85486867    -0.37930
N3924       N  0.81144019  0.88832748  0.91298158    -0.37940
C3925       C  0.82625927  0.91385517  0.77960986    -0.04600
C3926       C  0.86010532  0.91962116  0.78448070    -0.01720
C3927       C  0.88064526  0.90151735  0.80259347     0.03270
C3928       C  0.86598453  0.87923786  0.81716723    -0.04600
C3929       C  0.83633089  0.86883681  0.80142050    -0.01710
C3930       C  0.81492527  0.88734060  0.78467517     0.03270
C3931       C  0.87308737  0.94521222  0.77357941     0.37920
C3932       C  0.83104144  0.83943666  0.79671505     0.37910
C3933       C  0.78147836  0.87958861  0.77387119     0.36330
C3934       C  0.91546311  0.90753854  0.80788771     0.36330
N3935       N  0.75475329  0.87338468  0.76541424    -0.38490
N3936       N  0.94310905  0.91310102  0.81026351    -0.38490
N3937       N  0.82669641  0.81615540  0.79133779    -0.37930
N3938       N  0.88333411  0.96558821  0.76487609    -0.37940
C3939       C  0.91422087  0.85566936  0.84339985    -0.04600
C3940       C  0.94600353  0.85881975  0.86027545    -0.01720
C3941       C  0.96981470  0.83707590  0.85922705     0.03270
C3942       C  0.96145498  0.81251189  0.84264864    -0.04600
C3943       C  0.92888221  0.80985848  0.82844012    -0.01710
C3944       C  0.91161206  0.83375980  0.82135451     0.03270
C3945       C  0.95823352  0.88538769  0.87106925     0.37920
C3946       C  0.91429745  0.78426841  0.81605198     0.37910
C3947       C  0.90353584  0.83855768  0.78831717     0.36330
C3948       C  0.00341715  0.84032840  0.87330020     0.36330
N3949       N  0.89767276  0.84204001  0.76182931    -0.38490
N3950       N  0.03021280  0.84278613  0.88451094    -0.38490
N3951       N  0.90255509  0.76408273  0.80575592    -0.37930
N3952       N  0.97060607  0.90596468  0.87903926    -0.37940
loop_ 
_geom_bond_atom_site_label_1 
_geom_bond_atom_site_label_2 
_geom_bond_distance 
_geom_bond_site_symmetry_2 
_ccdc_geom_bond_type 
C1          C442   1.559       .  S
C1          C453   1.556       .  S
C1          C470   1.557       .  S
C1          C481   1.561       .  S
C2          C386   1.599       .  S
C2          C397   1.591       .  S
C2          C414   1.516       .  S
C2          C425   1.568       .  S
C3           N21   1.369       .  A
C3           C40   1.452       .  S
C3          C316   1.527       .  S
N4           N21   1.338       .  A
N4           N26   1.316       .  A
N4        Co1029   2.171       .  S
C5           N30   1.329       .  A
C5           C43   1.455       .  S
C5         H2026   1.082       .  S
H6           C47   1.081       .  S
C7           N31   1.360       .  A
C7           C11   1.487       .  S
C7           H36   1.080       .  S
Co8          N26   2.033       .  S
Co8         N510   2.096       .  S
Co8        N1036   2.195       .  S
Co8        N1506   2.048       .  S
Co8       Cl3016   2.437   1_455  S
N9           C47   1.352       .  A
N9         N1992   1.326       .  A
N9          Co10   2.129       .  S
Co10         N13   2.071       .  S
Co10       N2994   2.071       .  S
Co10       N1005   2.168       .  S
Co10      Cl1534   2.494   1_554  S
C11         N543   1.353       .  A
C11         C835   1.530       .  S
N12          N19   1.325       .  A
N12          N42   1.314       .  A
N12       Co1033   2.044       .  S
N13          N49   1.330       .  A
N13         N525   1.322   1_554  A
N14          C43   1.341       .  A
N14          N24   1.313       .  A
H15          C40   1.079       .  S
N16          N37   1.326       .  A
N16        N1985   1.326   1_455  A
N16        Co502   2.096       .  S
N17          N22   1.339       .  A
N17         N529   1.315   1_554  A
N17        Co998   2.168       .  S
C18          N22   1.374       .  A
C18         C299   1.523       .  S
C18         C540   1.449   1_554  S
N19          C34   1.327       .  A
N19       Co3005   2.072       .  S
C20          N48   1.366       .  A
C20          C23   1.496       .  S
C20          H54   1.074   1_545  S
C23          N44   1.343       .  A
C23         C327   1.532       .  S
N24          N30   1.324       .  A
N24       Co1490   2.048   1_545  S
N25          C51   1.348       .  A
N25          N27   1.318       .  A
N25       Co2017   2.101       .  S
N26          C40   1.333       .  A
N27          N55   1.330       .  A
N27         Co45   2.097       .  S
H28          C51   1.081       .  S
H29          C46   1.077       .  S
N30       Co2974   2.071   1_455  S
N31         N507   1.322       .  A
N31       Co1033   2.172       .  S
N32          N44   1.322       .  A
N32          N48   1.320       .  A
N32         Co41   2.042       .  S
C33          N37   1.347   1_655  A
C33         C358   1.507   1_655  S
C33        C2023   1.475       .  S
C34          C53   1.453       .  S
C34          H38   1.078       .  S
N35          C46   1.325       .  A
N35         N511   1.315       .  A
N35         Co45   2.038       .  S
C39          N55   1.352       .  A
C39          C51   1.465       .  S
C39         C372   1.503       .  S
Co41        N992   2.171   1_545  S
Co41       N2983   2.072   1_445  S
Co41       N2001   2.101       .  S
Co41      Cl2028   2.472   1_455  S
N42          C53   1.338       .  A
C43         C428   1.443       .  S
Co45       N1000   2.044       .  S
Co45       N1019   2.172       .  S
Co45        Cl52   2.427       .  S
C46         C512   1.449       .  S
C47        C2009   1.475       .  S
N48        Co996   2.195   1_545  S
N49         C505   1.353       .  A
H50        C1981   1.082       .  S
Cl52      Co2972   2.437   1_545  S
Cl52      Co1492   2.494       .  S
Cl52      Co2017   2.472       .  S
C53         C439   1.441       .  S
C56          N74   1.360       .  A
C56          C93   1.473       .  S
C56         C288   1.535       .  S
N57          N79   1.319       .  A
N57         N568   1.333       .  A
N57         Co94   2.108       .  S
C58          N83   1.336       .  A
C58          C96   1.452       .  S
C58         H103   1.081       .  S
H59         C100   1.079       .  S
C60         N578   1.324       .  A
C60          C64   1.458       .  S
C60          H89   1.082       .  S
Co61         N79   2.115       .  S
Co61        N101   2.027       .  S
Co61         N77   2.153       .  S
Co61        N563   2.044       .  S
Co61       Cl105   2.439       .  S
N62         C100   1.354       .  A
N62          N69   1.312       .  A
N62        Co557   2.118   1_554  S
Co63         N83   2.043       .  S
Co63         N70   2.089       .  S
Co63        N556   2.118       .  S
Co63        N560   2.008       .  S
Co63       Cl105   2.443       .  S
C64         N102   1.333       .  A
C64         C411   1.436       .  S
N65          N72   1.314       .  A
N65          N95   1.332       .  A
N65         Co98   2.115       .  S
N66         N102   1.308       .  A
N66         N578   1.315       .  A
N66        Co557   2.008   1_554  S
N67          C96   1.370       .  A
N67          N77   1.337       .  A
H68          C93   1.069       .  S
N69          N90   1.311       .  A
N69        Co555   2.044   1_554  S
N70          N88   1.320       .  A
N70          N75   1.330       .  A
C71          N75   1.354       .  A
C71          C99   1.450       .  S
C71         C271   1.494       .  S
N72          C87   1.337       .  A
N72         Co94   2.070       .  S
C73         N101   1.321       .  A
C73          C76   1.459       .  S
C73         H107   1.079       .  S
N74         N551   1.333       .  A
C76          N97   1.349       .  A
C76         C456   1.467       .  S
N77          N83   1.313       .  A
N78         C104   1.357       .  A
N78          N80   1.315       .  A
N78         Co94   2.136       .  S
N79         C587   1.344       .  A
N80         N108   1.323       .  A
N80         Co98   2.067       .  S
H81         C104   1.080       .  S
H82          C99   1.078       .  S
N84         C554   1.324       .  A
N84         N560   1.315       .  A
N84         Co98   2.039       .  S
N85          N97   1.316       .  A
N85         N101   1.316       .  A
N85         Co94   2.050       .  S
C86          N90   1.341       .  A
C86         C100   1.486       .  S
C86         C246   1.509       .  S
C87         C600   1.460       .  S
C87          H91   1.079       .  S
N88          C99   1.338       .  A
N88         Co98   2.092       .  S
C92         N108   1.343       .  A
C92         C104   1.480       .  S
C92         C260   1.503       .  S
C93         N573   1.344       .  A
Co94       Cl105   2.449       .  S
N95         C600   1.362       .  A
C96         C313   1.509       .  S
Co98       Cl105   2.431       .  S
C106        N589   1.362       .  A
C106        C302   1.498       .  S
C106        C581   1.460       .  S
C109        N127   1.347       .  A
C109        C146   1.481       .  S
C109        C274   1.515       .  S
N110        N127   1.319       .  A
N110        N132   1.322       .  A
N110       Co147   2.077       .  S
C111        N136   1.340       .  A
C111       C2125   1.460       .  S
C111        H156   1.081       .  S
H112        C153   1.082       .  S
C113        N137   1.335       .  A
C113        C117   1.446       .  S
C113        H142   1.080       .  S
Co114       N132   2.114       .  S
Co114       N122   2.131       .  S
Co114       N154   2.102       .  S
Co114       N130   2.119       .  S
Co114     Cl2134   2.468       .  S
N115        C153   1.348       .  A
N115        N122   1.320       .  A
N115      Co2092   2.107   1_455  S
Co116       N119   2.056       .  S
Co116       N136   2.086       .  S
Co116       N123   2.073       .  S
Co116      N2091   2.107       .  S
Co116      Cl158   2.448       .  S
C117        N155   1.354       .  A
C117        C484   1.458       .  S
N118        N125   1.315       .  A
N118        N148   1.330       .  A
N118       Co151   2.110       .  S
N119        N137   1.314       .  A
N119        N155   1.318       .  A
N120        C149   1.360       .  A
N120        N130   1.333       .  A
H121        C146   1.077       .  S
N122        N143   1.337       .  A
N123        N141   1.321       .  A
N123        N128   1.323       .  A
C124        N128   1.344       .  A
C124        C152   1.475       .  S
C124        C285   1.508       .  S
N125       C2116   1.345       .  A
N125      Co2123   2.083       .  S
C126        N154   1.345       .  A
C126        C129   1.477       .  S
C126        H160   1.080       .  S
C129        N150   1.331       .  A
C129        C400   1.472       .  S
N130       N2112   1.319   1_455  A
N131        C157   1.345       .  A
N131        N133   1.311       .  A
N131      Co2123   2.109       .  S
N132        C146   1.348       .  A
N133        N161   1.327       .  A
N133       Co151   2.077       .  S
H134        C157   1.075       .  S
H135        C152   1.082       .  S
N136       N2106   1.319       .  A
N137       Co151   2.051       .  S
N138        N150   1.312       .  A
N138        N154   1.319       .  A
N138       Co147   2.017       .  S
C139        N143   1.365       .  A
C139        C153   1.468       .  S
C139        C229   1.528       .  S
C140       N2101   1.345       .  A
C140       C2135   1.466   1_455  S
C140        H144   1.080       .  S
N141        C152   1.354       .  A
N141       Co151   2.124       .  S
C145        N161   1.360       .  A
C145        C157   1.482       .  S
C145        C218   1.537       .  S
Co147      N2101   2.083       .  S
Co147      N2107   2.109   1_455  S
Co147     Cl2134   2.439       .  S
N148        C159   1.354       .  A
C149        C355   1.506       .  S
C149       C2087   1.460   1_455  S
Co151      Cl158   2.440       .  S
Cl158     Co2090   2.468       .  S
Cl158     Co2123   2.439       .  S
C159        C369   1.504       .  S
C159       C2116   1.466       .  S
C162        N180   1.374       .  A
C162        C199   1.452       .  S
C162        C330   1.529       .  S
N163        N180   1.345       .  A
N163        N185   1.316       .  A
N163      Co1188   2.167       .  S
C164        N189   1.330       .  A
C164        C202   1.450       .  S
C164        H209   1.081       .  S
H165        C206   1.081       .  S
C166        N190   1.342       .  A
C166        C170   1.464       .  S
C166        H195   1.081       .  S
Co167       N207   2.180       .  S
Co167       N183   2.036       .  S
Co167      N1173   2.045       .  S
Co167      N1163   2.137   1_545  S
Co167     Cl1199   2.441       .  S
N168        C206   1.349       .  A
N168        N175   1.325       .  A
N168       Co169   2.118       .  S
Co169       N172   2.070       .  S
Co169      N1177   2.069       .  S
Co169      N1164   2.161       .  S
Co169      Cl211   2.471       .  S
C170        N208   1.352       .  A
C170        C243   1.489       .  S
N171        N178   1.316       .  A
N171        N201   1.309       .  A
N171       Co204   2.010       .  S
N172        N190   1.315       .  A
N172        N208   1.325       .  A
N173        C202   1.333       .  A
N173        N183   1.315       .  A
H174        C199   1.081       .  S
N175        N196   1.336       .  A
N175      Co1155   2.137       .  S
N176        N194   1.318       .  A
N176        N181   1.339       .  A
N176      Co1157   2.161       .  S
C177        N181   1.370       .  A
C177        C205   1.455       .  S
C177        C344   1.516       .  S
N178        C193   1.327       .  A
N178      Co1188   2.051       .  S
C179        N207   1.365       .  A
C179        C182   1.504       .  S
C179        H213   1.079       .  S
C182        N203   1.337       .  A
C182        C257   1.530       .  S
N183        N189   1.324       .  A
N184        C210   1.348       .  A
N184        N186   1.322       .  A
N184       Co200   2.122       .  S
N185        C199   1.331       .  A
N185      Co1155   2.045       .  S
N186        N214   1.330       .  A
N186      Co1192   2.089   1_545  S
H187        C210   1.079       .  S
H188        C205   1.081       .  S
N189      Co1157   2.069       .  S
N190       Co204   2.101       .  S
N191        N203   1.314       .  A
N191        N207   1.317       .  A
N191       Co200   2.033       .  S
C192        N196   1.361       .  A
C192        C206   1.462       .  S
C192        C232   1.519       .  S
C193        C212   1.463       .  S
C193        H197   1.074       .  S
N194        C205   1.339       .  A
N194      Co1192   2.062   1_545  S
C198        N214   1.353       .  A
C198        C210   1.464       .  S
C198        C215   1.507       .  S
Co200      N1151   2.167       .  S
Co200      N1166   2.051   1_545  S
Co200     Cl1199   2.466       .  S
N201        C212   1.329       .  A
C202        C383   1.442       .  S
Co204      N1174   2.089       .  S
Co204      N1182   2.062       .  S
Co204      Cl211   2.434       .  S
Cl211     Co1155   2.441       .  S
Cl211     Co1188   2.466       .  S
C212        C467   1.430       .  S
C215        C216   1.411       .  A
C215        C220   1.409       .  A
C216        C217   1.422       .  A
C216        C221   1.452       .  S
C217        C218   1.432       .  A
C217        C224   1.451       .  S
C218        C219   1.432       .  A
C219        C220   1.424       .  A
C219        C222   1.447       .  S
C220        C223   1.453       .  S
C221        N228   1.157       .  T
C222        N227   1.158       .  T
C223        N225   1.157       .  T
C224        N226   1.158       .  T
C229        C230   1.422       .  A
C229        C234   1.418       .  A
C230        C231   1.427       .  A
C230        C235   1.449       .  S
C231        C232   1.416       .  A
C231        C238   1.450       .  S
C232        C233   1.416       .  A
C233        C234   1.428       .  A
C233        C236   1.450       .  S
C234        C237   1.444       .  S
C235        N242   1.157       .  T
C236        N241   1.157       .  T
C237        N239   1.155       .  T
C238        N240   1.157       .  T
C243        C244   1.406       .  A
C243        C248   1.413       .  A
C244        C245   1.403       .  A
C244        C249   1.453       .  S
C245        C246   1.427       .  A
C245        C252   1.453       .  S
C246        C247   1.420       .  A
C247        C248   1.421       .  A
C247        C250   1.446       .  S
C248        C251   1.451       .  S
C249        N256   1.158       .  T
C250        N255   1.157       .  T
C251        N253   1.158       .  T
C252        N254   1.157       .  T
C257        C258   1.440       .  A
C257        C262   1.419       .  A
C258        C259   1.419       .  A
C258        C263   1.452       .  S
C259        C260   1.402       .  A
C259        C266   1.452       .  S
C260        C261   1.413       .  A
C261        C262   1.425       .  A
C261        C264   1.445       .  S
C262        C265   1.448       .  S
C263        N270   1.158       .  T
C264        N269   1.155       .  T
C265        N267   1.158       .  T
C266        N268   1.157       .  T
C271        C272   1.412       .  A
C271        C276   1.415       .  A
C272        C273   1.412       .  A
C272        C277   1.454       .  S
C273        C274   1.425       .  A
C273        C280   1.452       .  S
C274        C275   1.419       .  A
C275        C276   1.420       .  A
C275        C278   1.446       .  S
C276        C279   1.452       .  S
C277        N284   1.158       .  T
C278        N283   1.157       .  T
C279        N281   1.157       .  T
C280        N282   1.157       .  T
C285        C286   1.414       .  A
C285        C290   1.411       .  A
C286        C287   1.426       .  A
C286        C291   1.452       .  S
C287        C288   1.429       .  A
C287        C294   1.448       .  S
C288        C289   1.428       .  A
C289        C290   1.419       .  A
C289        C292   1.447       .  S
C290        C293   1.454       .  S
C291        N298   1.158       .  T
C292        N297   1.157       .  T
C293        N295   1.157       .  T
C294        N296   1.157       .  T
C299        C304   1.414       .  A
C299        C794   1.434       .  A
C300        C301   1.414       .  A
C300        C793   1.434       .  A
C300        C305   1.453       .  S
C301        C796   1.405       .  A
C301        C308   1.453       .  S
C302        C303   1.414       .  A
C302        C795   1.405       .  A
C303        C304   1.424       .  A
C303        C306   1.448       .  S
C304        C307   1.443       .  S
C305        N312   1.158       .  T
C306        N311   1.157       .  T
C307        N309   1.156       .  T
C308        N310   1.157       .  T
C313        C314   1.418       .  A
C313        C318   1.409       .  A
C314        C315   1.425       .  A
C314        C319   1.447       .  S
C315        C316   1.414       .  A
C315        C322   1.449       .  S
C316        C317   1.433       .  A
C317        C318   1.421       .  A
C317        C320   1.449       .  S
C318        C321   1.454       .  S
C319        N326   1.156       .  T
C320        N325   1.157       .  T
C321        N323   1.158       .  T
C322        N324   1.157       .  T
C327        C328   1.425   1_545  A
C327        C332   1.422       .  A
C328       C1317   1.416       .  A
C328        C333   1.450       .  S
C329        C330   1.416       .  A
C329       C1316   1.416       .  A
C329        C336   1.455       .  S
C330       C1319   1.421       .  A
C331        C332   1.439       .  A
C331       C1318   1.421   1_545  A
C331        C334   1.447       .  S
C332        C335   1.447       .  S
C333        N340   1.157       .  T
C334        N339   1.157       .  T
C335        N337   1.157       .  T
C336        N338   1.157       .  T
C341        C505   1.530       .  S
C341        C346   1.419       .  A
C341       C1330   1.418       .  A
C342        C343   1.425       .  A
C342       C1329   1.418       .  A
C342        C347   1.436       .  S
C343        C344   1.410       .  A
C343        C350   1.448       .  S
C344       C1333   1.411   1_545  A
C345        C346   1.427       .  A
C345       C1332   1.411       .  A
C345        C348   1.443       .  S
C346        C349   1.447       .  S
C347        N354   1.154   1_554  T
C348        N353   1.156       .  T
C349        N351   1.157       .  T
C350        N352   1.157       .  T
C355        C360   1.414       .  A
C355       C2332   1.413   1_455  A
C356        C357   1.418       .  A
C356       C2331   1.413       .  A
C356        C361   1.445       .  S
C357       C2334   1.413       .  A
C357        C364   1.450       .  S
C358        C359   1.422       .  A
C358       C2333   1.413   1_455  A
C359        C360   1.422       .  A
C359        C362   1.450       .  S
C360        C363   1.450       .  S
C361        N368   1.155       .  T
C362        N367   1.157       .  T
C363        N365   1.158       .  T
C364        N366   1.157       .  T
C369        C370   1.415       .  A
C369        C374   1.411       .  A
C370        C371   1.421       .  A
C370        C375   1.449       .  S
C371        C372   1.416       .  A
C371        C378   1.450       .  S
C372        C373   1.415       .  A
C373        C374   1.419       .  A
C373       C2352   1.450       .  S
C374       C2353   1.447       .  S
C375        N382   1.157       .  T
C376       C2349   1.450       .  S
C376        N381   1.157       .  T
C377       C2350   1.447       .  S
C377        N379   1.156       .  T
C378        N380   1.157       .  T
C383        C384   1.386       .  A
C383        C388   1.393       .  A
C384        C385   1.400       .  A
C384        C389   1.460       .  S
C385        C386   1.457       .  A
C385        C392   1.452       .  S
C386        C387   1.420       .  A
C387        C388   1.398       .  A
C387        C390   1.432       .  S
C388        C391   1.453       .  S
C389        N396   1.157       .  T
C390        N395   1.152       .  T
C391        N393   1.157       .  T
C392        N394   1.157       .  T
C397        C398   1.466       .  A
C397        C402   1.431       .  A
C398        C399   1.401       .  A
C398        C403   1.454       .  S
C399        C400   1.375       .  A
C399        C406   1.452       .  S
C400        C401   1.404       .  A
C401        C402   1.408       .  A
C401        C404   1.446   1_455  S
C402        C405   1.451       .  S
C403        N410   1.158       .  T
C404        N409   1.155       .  T
C405        N407   1.157       .  T
C406        N408   1.157   1_455  T
C411        C412   1.409       .  A
C411        C416   1.384       .  A
C412        C413   1.379       .  A
C412        C911   1.450       .  S
C413        C414   1.425       .  A
C413        C420   1.454       .  S
C414        C415   1.448       .  A
C415        C416   1.389       .  A
C415        C418   1.452       .  S
C416        C419   1.454       .  S
C417        C906   1.450       .  S
C417        N424   1.154       .  T
C418        N423   1.156       .  T
C419        N421   1.157       .  T
C420        N422   1.158       .  T
C425        C426   1.429       .  A
C425        C430   1.427       .  A
C426        C427   1.396       .  A
C426        C431   1.449       .  S
C427        C428   1.407       .  A
C427        C434   1.453       .  S
C428        C429   1.391       .  A
C429        C430   1.395       .  A
C429        C432   1.451       .  S
C430        C433   1.445       .  S
C431        N438   1.157       .  T
C432        N437   1.157       .  T
C433        N435   1.158       .  T
C434       N2412   1.156       .  T
N436       C2410   1.156       .  T
C439        C440   1.412       .  A
C439        C444   1.391       .  A
C440        C441   1.409       .  A
C440        C445   1.452       .  S
C441        C442   1.413       .  A
C441        C448   1.444       .  S
C442        C443   1.428       .  A
C443        C444   1.387       .  A
C443        C446   1.444       .  S
C444        C447   1.451       .  S
C445       N2428   1.157       .  T
C446        N451   1.157       .  T
C447        N449   1.157       .  T
C448        N450   1.156       .  T
N452       C2421   1.157       .  T
C453        C454   1.409       .  A
C453        C458   1.417       .  A
C454        C455   1.395       .  A
C454        C459   1.447       .  S
C455        C456   1.404       .  A
C455        C462   1.449       .  S
C456        C457   1.406       .  A
C457        C458   1.399       .  A
C457        C460   1.451       .  S
C458        C461   1.448       .  S
C459        N466   1.158       .  T
C460        N465   1.157       .  T
C461        N463   1.158       .  T
C462        N464   1.157       .  T
C467        C468   1.406       .  A
C467        C472   1.396       .  A
C468        C469   1.391       .  A
C468        C473   1.455       .  S
C469        C470   1.423       .  A
C469        C476   1.448       .  S
C470        C471   1.423       .  A
C471        C472   1.394       .  A
C471        C474   1.448       .  S
C472        C475   1.450       .  S
C473        N480   1.157       .  T
C474        N479   1.158       .  T
C475        N477   1.157       .  T
C476        N478   1.157       .  T
C481        C482   1.431       .  A
C481        C486   1.410       .  A
C482        C483   1.417       .  A
C482        C487   1.440       .  S
C483        C484   1.406       .  A
C483        C490   1.452       .  S
C484        C485   1.413       .  A
C485        C486   1.361       .  A
C485        C488   1.454       .  S
C486        C489   1.451       .  S
C487        N494   1.156       .  T
C488        N493   1.158       .  T
C489        N491   1.158       .  T
C490        N492   1.157       .  T
C495        C936   1.559       .  S
C495        C947   1.556       .  S
C495        C964   1.557       .  S
C495        C975   1.561       .  S
C496        C880   1.599       .  S
C496        C891   1.591       .  S
C496        C908   1.516       .  S
C496        C919   1.568       .  S
C497        N515   1.369       .  A
C497        C534   1.452       .  S
C497        C810   1.527       .  S
N498        N515   1.338       .  A
N498        N520   1.316       .  A
N498      Co1523   2.171       .  S
C499        N524   1.329       .  A
C499        C537   1.455       .  S
C499       H2520   1.082       .  S
H500        C541   1.081       .  S
C501        N525   1.360       .  A
C501        C505   1.487   1_556  S
C501        H530   1.080       .  S
Co502       N520   2.033   1_554  S
Co502      N1530   2.195   1_554  S
Co502      N1012   2.048       .  S
Co502     Cl3510   2.437   1_454  S
N503        C541   1.352       .  A
N503       N2486   1.326       .  A
N503       Co504   2.129       .  S
Co504       N507   2.071       .  S
Co504      N3488   2.071       .  S
Co504      N1499   2.168       .  S
Co504     Cl1040   2.494       .  S
N506        N513   1.325       .  A
N506        N536   1.314       .  A
N506      Co1527   2.044       .  S
N507        N543   1.330       .  A
N508        C537   1.341       .  A
N508        N518   1.313       .  A
H509        C534   1.079       .  S
N510       N2479   1.326   1_455  A
N510        N531   1.326       .  A
N511        N516   1.339       .  A
N511      Co1492   2.168       .  S
C512        N516   1.374       .  A
C512        C793   1.523       .  S
N513        C528   1.327       .  A
N513      Co3499   2.072       .  S
C514        N542   1.366       .  A
C514        C517   1.496       .  S
C514        H548   1.074   1_545  S
C517        N538   1.343       .  A
C517        C821   1.532       .  S
N518        N524   1.324       .  A
N518       Co996   2.048   1_545  S
N519        C545   1.348       .  A
N519        N521   1.318       .  A
N519      Co2511   2.101       .  S
N520        C534   1.333       .  A
N521        N549   1.330       .  A
N521       Co539   2.097       .  S
H522        C545   1.081       .  S
H523        C540   1.077       .  S
N524      Co3468   2.071   1_455  S
N525      Co1527   2.172       .  S
N526        N538   1.322       .  A
N526        N542   1.320       .  A
N526       Co535   2.042       .  S
C527        N531   1.347   1_655  A
C527       C2517   1.475       .  S
C527        C852   1.507   1_655  S
C528        C547   1.453       .  S
C528        H532   1.078       .  S
N529        C540   1.325       .  A
N529       Co539   2.038       .  S
C533        N549   1.352       .  A
C533        C545   1.465       .  S
C533        C866   1.503       .  S
Co535      N1486   2.171   1_545  S
Co535      N3477   2.072   1_445  S
Co535      N2495   2.101       .  S
Co535     Cl2522   2.472   1_455  S
N536        C547   1.338       .  A
C537        C922   1.443       .  S
Co539      N1494   2.044       .  S
Co539      N1513   2.172       .  S
Co539      Cl546   2.427       .  S
C541       C2503   1.475       .  S
N542      Co1490   2.195   1_546  S
H544       C2475   1.082       .  S
Cl546     Co3466   2.437   1_546  S
Cl546      Co998   2.494   1_556  S
Cl546     Co2511   2.472       .  S
C547        C933   1.441       .  S
C550        N568   1.360       .  A
C550        C587   1.473       .  S
C550        C782   1.535       .  S
N551        N573   1.319       .  A
N551       Co588   2.108   1_554  S
C552        N577   1.336       .  A
C552        C590   1.452       .  S
C552        H597   1.081       .  S
H553        C594   1.079       .  S
C554        C558   1.458       .  S
C554        H583   1.082       .  S
Co555       N573   2.115   1_556  S
Co555       N595   2.027       .  S
Co555       N571   2.153       .  S
Co555      Cl599   2.439       .  S
N556        C594   1.354       .  A
N556        N563   1.312       .  A
Co557       N577   2.043       .  S
Co557       N564   2.089       .  S
Co557      Cl599   2.443       .  S
C558        N596   1.333       .  A
C558        C905   1.436       .  S
N559        N566   1.314   1_554  A
N559        N589   1.332       .  A
N559       Co592   2.115   1_554  S
N560        N596   1.308       .  A
N561        C590   1.370       .  A
N561        N571   1.337       .  A
H562        C587   1.069       .  S
N563        N584   1.311       .  A
N564        N582   1.320       .  A
N564        N569   1.330       .  A
C565        N569   1.354       .  A
C565        C593   1.450       .  S
C565        C765   1.494       .  S
N566        C581   1.337   1_556  A
N566       Co588   2.070       .  S
C567        N595   1.321       .  A
C567        C570   1.459       .  S
C567        H601   1.079       .  S
C570        N591   1.349       .  A
C570        C950   1.467       .  S
N571        N577   1.313       .  A
N572        C598   1.357       .  A
N572        N574   1.315       .  A
N572       Co588   2.136       .  S
N574        N602   1.323       .  A
N574       Co592   2.067       .  S
H575        C598   1.080       .  S
H576        C593   1.078       .  S
N578       Co592   2.039   1_554  S
N579        N591   1.316       .  A
N579        N595   1.316       .  A
N579       Co588   2.050       .  S
C580        N584   1.341       .  A
C580        C594   1.486       .  S
C580        C740   1.509       .  S
C581        H585   1.079       .  S
N582        C593   1.338       .  A
N582       Co592   2.092       .  S
C586        N602   1.343       .  A
C586        C598   1.480       .  S
C586        C754   1.503       .  S
Co588      Cl599   2.449       .  S
C590        C807   1.509       .  S
Co592      Cl599   2.431       .  S
C600        C796   1.497       .  S
C603        N621   1.347       .  A
C603        C640   1.481       .  S
C603        C768   1.515       .  S
N604        N621   1.319       .  A
N604        N626   1.322       .  A
N604       Co641   2.077       .  S
C605        N630   1.340       .  A
C605       C2619   1.460       .  S
C605        H650   1.081       .  S
H606        C647   1.082       .  S
C607        N631   1.335       .  A
C607        C611   1.446       .  S
C607        H636   1.080       .  S
Co608       N626   2.115       .  S
Co608       N616   2.131       .  S
Co608       N648   2.102       .  S
Co608       N624   2.119       .  S
Co608     Cl2628   2.468       .  S
N609        C647   1.348       .  A
N609        N616   1.320       .  A
N609      Co2586   2.107   1_455  S
Co610      N2585   2.107       .  S
Co610       N613   2.056       .  S
Co610       N630   2.086       .  S
Co610       N617   2.073       .  S
Co610      Cl652   2.449       .  S
C611        N649   1.354       .  A
C611        C978   1.458       .  S
N612        N619   1.315       .  A
N612        N642   1.330       .  A
N612       Co645   2.110       .  S
N613        N631   1.314       .  A
N613        N649   1.318       .  A
N614        C643   1.360       .  A
N614        N624   1.333       .  A
H615        C640   1.077       .  S
N616        N637   1.337       .  A
N617        N635   1.321       .  A
N617        N622   1.323       .  A
C618        N622   1.344       .  A
C618        C646   1.475       .  S
C618        C779   1.508       .  S
N619       C2610   1.345       .  A
N619      Co2617   2.083       .  S
C620        N648   1.345       .  A
C620        C623   1.477       .  S
C620        H654   1.080       .  S
C623        N644   1.331       .  A
C623        C894   1.471       .  S
N624       N2606   1.319   1_455  A
N625        C651   1.345       .  A
N625        N627   1.311       .  A
N625      Co2617   2.109       .  S
N626        C640   1.348       .  A
N627        N655   1.327       .  A
N627       Co645   2.077       .  S
H628        C651   1.075       .  S
H629        C646   1.082       .  S
N630       N2600   1.319       .  A
N631       Co645   2.051       .  S
N632        N644   1.312       .  A
N632        N648   1.319       .  A
N632       Co641   2.017       .  S
C633        N637   1.365       .  A
C633        C647   1.468       .  S
C633        C723   1.528       .  S
C634       N2595   1.345       .  A
C634       C2629   1.466   1_455  S
C634        H638   1.080       .  S
N635        C646   1.354       .  A
N635       Co645   2.124       .  S
C639        N655   1.360       .  A
C639        C651   1.482       .  S
C639        C712   1.537       .  S
Co641      N2595   2.083       .  S
Co641      N2601   2.109   1_455  S
Co641     Cl2628   2.439       .  S
N642        C653   1.354       .  A
C643       C2581   1.460   1_455  S
C643        C849   1.506       .  S
Co645      Cl652   2.440       .  S
Cl652     Co2584   2.468       .  S
Cl652     Co2617   2.439       .  S
C653       C2610   1.466       .  S
C653        C863   1.504       .  S
C656        N674   1.374       .  A
C656        C693   1.452       .  S
C656        C824   1.529       .  S
N657        N674   1.345       .  A
N657        N679   1.316       .  A
N657      Co1682   2.167       .  S
C658        N683   1.330       .  A
C658        C696   1.450       .  S
C658        H703   1.081       .  S
H659        C700   1.081       .  S
C660        N684   1.342       .  A
C660        C664   1.464       .  S
C660        H689   1.081       .  S
Co661      N1667   2.045       .  S
Co661      N1657   2.137   1_545  S
Co661       N701   2.180       .  S
Co661       N677   2.036       .  S
Co661     Cl1693   2.441       .  S
N662        C700   1.349       .  A
N662        N669   1.325       .  A
N662       Co663   2.118       .  S
Co663       N666   2.070       .  S
Co663      N1671   2.069       .  S
Co663      N1658   2.161       .  S
Co663      Cl705   2.471       .  S
C664        N702   1.352       .  A
C664        C737   1.489       .  S
N665        N672   1.316       .  A
N665        N695   1.309       .  A
N665       Co698   2.010       .  S
N666        N684   1.315       .  A
N666        N702   1.325       .  A
N667        C696   1.333       .  A
N667        N677   1.315       .  A
H668        C693   1.081       .  S
N669        N690   1.336       .  A
N669      Co1649   2.137       .  S
N670        N688   1.318       .  A
N670        N675   1.339       .  A
N670      Co1651   2.161       .  S
C671        N675   1.370       .  A
C671        C699   1.455       .  S
C671        C838   1.516       .  S
N672        C687   1.327       .  A
N672      Co1682   2.050       .  S
C673        N701   1.365       .  A
C673        C676   1.504       .  S
C673        H707   1.079       .  S
C676        N697   1.337       .  A
C676        C751   1.530       .  S
N677        N683   1.324       .  A
N678        C704   1.348       .  A
N678        N680   1.322       .  A
N678       Co694   2.122       .  S
N679        C693   1.331       .  A
N679      Co1649   2.045       .  S
N680        N708   1.330       .  A
N680      Co1686   2.089   1_545  S
H681        C704   1.079       .  S
H682        C699   1.081       .  S
N683      Co1651   2.069       .  S
N684       Co698   2.101       .  S
N685        N697   1.314       .  A
N685        N701   1.317       .  A
N685       Co694   2.033       .  S
C686        N690   1.361       .  A
C686        C700   1.462       .  S
C686        C726   1.519       .  S
C687        C706   1.463       .  S
C687        H691   1.074       .  S
N688        C699   1.339       .  A
N688      Co1686   2.062   1_545  S
C692        N708   1.353       .  A
C692        C704   1.464       .  S
C692        C709   1.507       .  S
Co694      N1645   2.167       .  S
Co694      N1660   2.050   1_545  S
Co694     Cl1693   2.466       .  S
N695        C706   1.329       .  A
C696        C877   1.441       .  S
Co698      N1668   2.089       .  S
Co698      N1676   2.062       .  S
Co698      Cl705   2.434       .  S
Cl705     Co1649   2.441       .  S
Cl705     Co1682   2.466       .  S
C706        C961   1.430       .  S
C709        C710   1.411       .  A
C709        C714   1.409       .  A
C710        C711   1.422       .  A
C710        C715   1.452       .  S
C711        C712   1.432       .  A
C711        C718   1.451       .  S
C712        C713   1.432       .  A
C713        C714   1.424       .  A
C713        C716   1.447       .  S
C714        C717   1.453       .  S
C715        N722   1.157       .  T
C716        N721   1.158       .  T
C717        N719   1.157       .  T
C718        N720   1.158       .  T
C723        C724   1.422       .  A
C723        C728   1.418       .  A
C724        C725   1.427       .  A
C724        C729   1.449       .  S
C725        C726   1.416       .  A
C725        C732   1.450       .  S
C726        C727   1.416       .  A
C727        C728   1.428       .  A
C727        C730   1.450       .  S
C728        C731   1.444       .  S
C729        N736   1.157       .  T
C730        N735   1.157       .  T
C731        N733   1.155       .  T
C732        N734   1.157       .  T
C737        C738   1.406       .  A
C737        C742   1.413       .  A
C738        C739   1.403       .  A
C738        C743   1.453       .  S
C739        C740   1.427       .  A
C739        C746   1.453       .  S
C740        C741   1.420       .  A
C741        C742   1.421       .  A
C741        C744   1.446       .  S
C742        C745   1.451       .  S
C743        N750   1.158       .  T
C744        N749   1.157       .  T
C745        N747   1.158       .  T
C746        N748   1.157       .  T
C751        C752   1.440       .  A
C751        C756   1.419       .  A
C752        C753   1.419       .  A
C752        C757   1.452       .  S
C753        C754   1.402       .  A
C753        C760   1.452       .  S
C754        C755   1.413       .  A
C755        C756   1.425       .  A
C755        C758   1.445       .  S
C756        C759   1.448       .  S
C757        N764   1.158       .  T
C758        N763   1.155       .  T
C759        N761   1.158       .  T
C760        N762   1.157       .  T
C765        C766   1.412       .  A
C765        C770   1.415       .  A
C766        C767   1.412       .  A
C766        C771   1.454       .  S
C767        C768   1.425       .  A
C767        C774   1.452       .  S
C768        C769   1.419       .  A
C769        C770   1.420       .  A
C769        C772   1.446       .  S
C770        C773   1.452       .  S
C771        N778   1.158       .  T
C772        N777   1.157       .  T
C773        N775   1.157       .  T
C774        N776   1.157       .  T
C779        C780   1.414       .  A
C779        C784   1.411       .  A
C780        C781   1.426       .  A
C780        C785   1.452       .  S
C781        C782   1.429       .  A
C781        C788   1.448       .  S
C782        C783   1.428       .  A
C783        C784   1.419       .  A
C783        C786   1.447       .  S
C784        C787   1.454       .  S
C785        N792   1.158       .  T
C786        N791   1.157       .  T
C787        N789   1.157       .  T
C788        N790   1.157       .  T
C793        C798   1.414       .  A
C794        C795   1.414       .  A
C794        C799   1.453   1_554  S
C795        C802   1.453   1_554  S
C796        C797   1.414       .  A
C797        C798   1.424       .  A
C797        C800   1.448       .  S
C798        C801   1.443       .  S
C799        N806   1.158       .  T
C800        N805   1.157       .  T
C801        N803   1.156       .  T
C802        N804   1.157       .  T
C807        C808   1.418       .  A
C807        C812   1.409       .  A
C808        C809   1.425       .  A
C808        C813   1.447       .  S
C809        C810   1.414       .  A
C809        C816   1.449       .  S
C810        C811   1.433       .  A
C811        C812   1.421       .  A
C811        C814   1.449       .  S
C812        C815   1.454       .  S
C813        N820   1.156       .  T
C814        N819   1.157   1_556  T
C815        N817   1.158   1_556  T
C816        N818   1.157       .  T
C821        C822   1.425   1_545  A
C821        C826   1.422       .  A
C822       C1811   1.416       .  A
C822        C827   1.450       .  S
C823       C1810   1.416       .  A
C823        C824   1.416       .  A
C823        C830   1.455       .  S
C824       C1813   1.421       .  A
C825       C1812   1.421   1_545  A
C825        C826   1.439       .  A
C825        C828   1.447       .  S
C826        C829   1.447       .  S
C827        N834   1.157       .  T
C828        N833   1.157       .  T
C829        N831   1.157       .  T
C830        N832   1.157       .  T
C835       C1824   1.418       .  A
C835        C840   1.419       .  A
C836       C1823   1.418       .  A
C836        C837   1.425       .  A
C836        C841   1.436       .  S
C837        C838   1.410       .  A
C837        C844   1.448       .  S
C838       C1827   1.411   1_545  A
C839       C1826   1.411       .  A
C839        C840   1.427       .  A
C839        C842   1.443       .  S
C840        C843   1.447       .  S
C841        N848   1.154       .  T
C842        N847   1.156       .  T
C843        N845   1.157       .  T
C844        N846   1.157       .  T
C849       C2826   1.413   1_455  A
C849        C854   1.414       .  A
C850       C2825   1.413       .  A
C850        C851   1.418       .  A
C850        C855   1.445       .  S
C851       C2828   1.413       .  A
C851        C858   1.450       .  S
C852       C2827   1.413   1_455  A
C852        C853   1.422       .  A
C853        C854   1.422       .  A
C853        C856   1.450       .  S
C854        C857   1.450       .  S
C855        N862   1.155       .  T
C856        N861   1.157       .  T
C857        N859   1.158       .  T
C858        N860   1.157       .  T
C863        C864   1.415       .  A
C863        C868   1.411       .  A
C864        C865   1.421       .  A
C864        C869   1.449       .  S
C865        C866   1.416       .  A
C865        C872   1.450       .  S
C866        C867   1.415       .  A
C867        C868   1.419       .  A
C867       C2846   1.450       .  S
C868       C2847   1.447       .  S
C869        N876   1.157       .  T
C870       C2843   1.450       .  S
C870        N875   1.157       .  T
C871       C2844   1.447       .  S
C871        N873   1.156       .  T
C872        N874   1.157       .  T
C877        C878   1.386       .  A
C877        C882   1.393       .  A
C878        C879   1.400       .  A
C878        C883   1.460       .  S
C879        C880   1.457       .  A
C879        C886   1.452       .  S
C880        C881   1.420       .  A
C881        C882   1.398       .  A
C881        C884   1.432       .  S
C882        C885   1.453       .  S
C883        N890   1.157       .  T
C884        N889   1.152       .  T
C885        N887   1.157       .  T
C886        N888   1.157       .  T
C891        C892   1.466       .  A
C891        C896   1.431       .  A
C892        C893   1.401       .  A
C892        C897   1.454       .  S
C893        C894   1.375       .  A
C893        C900   1.452       .  S
C894        C895   1.404       .  A
C895        C896   1.408       .  A
C895        C898   1.446   1_455  S
C896        C899   1.451       .  S
C897        N904   1.158       .  T
C898        N903   1.155       .  T
C899        N901   1.157       .  T
C900        N902   1.157   1_455  T
C905        C906   1.409       .  A
C905        C910   1.384       .  A
C906        C907   1.379       .  A
C907        C908   1.425       .  A
C907        C914   1.454       .  S
C908        C909   1.448       .  A
C909        C910   1.389       .  A
C909        C912   1.452       .  S
C910        C913   1.454       .  S
C911        N918   1.154   1_554  T
C912        N917   1.156       .  T
C913        N915   1.157       .  T
C914        N916   1.158       .  T
C919        C920   1.429       .  A
C919        C924   1.427       .  A
C920        C921   1.396       .  A
C920        C925   1.449       .  S
C921        C922   1.407       .  A
C921        C928   1.453       .  S
C922        C923   1.391       .  A
C923        C924   1.395       .  A
C923        C926   1.451       .  S
C924        C927   1.445       .  S
C925        N932   1.157       .  T
C926        N931   1.157       .  T
C927        N929   1.158       .  T
C928       N2906   1.156       .  T
N930       C2904   1.156       .  T
C933        C934   1.412       .  A
C933        C938   1.391       .  A
C934        C935   1.409       .  A
C934        C939   1.452       .  S
C935        C936   1.413       .  A
C935        C942   1.444       .  S
C936        C937   1.428       .  A
C937        C938   1.387       .  A
C937        C940   1.444       .  S
C938        C941   1.451       .  S
C939       N2922   1.157       .  T
C940        N945   1.157       .  T
C941        N943   1.157       .  T
C942        N944   1.156       .  T
N946       C2915   1.157       .  T
C947        C948   1.409       .  A
C947        C952   1.417       .  A
C948        C949   1.395       .  A
C948        C953   1.447       .  S
C949        C950   1.404       .  A
C949        C956   1.449       .  S
C950        C951   1.406       .  A
C951        C952   1.399       .  A
C951        C954   1.451       .  S
C952        C955   1.448       .  S
C953        N960   1.158       .  T
C954        N959   1.157       .  T
C955        N957   1.158       .  T
C956        N958   1.157       .  T
C961        C962   1.406       .  A
C961        C966   1.396       .  A
C962        C963   1.391       .  A
C962        C967   1.455       .  S
C963        C964   1.423       .  A
C963        C970   1.448       .  S
C964        C965   1.423       .  A
C965        C966   1.394       .  A
C965        C968   1.448       .  S
C966        C969   1.450       .  S
C967        N974   1.157       .  T
C968        N973   1.158       .  T
C969        N971   1.157       .  T
C970        N972   1.157       .  T
C975        C976   1.431       .  A
C975        C980   1.410       .  A
C976        C977   1.417       .  A
C976        C981   1.440       .  S
C977        C978   1.406       .  A
C977        C984   1.452       .  S
C978        C979   1.413       .  A
C979        C980   1.361       .  A
C979        C982   1.454       .  S
C980        C983   1.451       .  S
C981        N988   1.156       .  T
C982        N987   1.158       .  T
C983        N985   1.158       .  T
C984        N986   1.157       .  T
C989       C1430   1.559       .  S
C989       C1441   1.556       .  S
C989       C1458   1.557       .  S
C989       C1469   1.561       .  S
C990       C1374   1.599       .  S
C990       C1385   1.591       .  S
C990       C1402   1.516       .  S
C990       C1413   1.568       .  S
C991       N1009   1.369       .  A
C991       C1028   1.452       .  S
C991       C1304   1.527       .  S
N992       N1009   1.338       .  A
N992       N1014   1.316       .  A
C993       N1018   1.329       .  A
C993       C1031   1.455       .  S
C993       H3014   1.082       .  S
H994       C1035   1.081       .  S
C995       N1019   1.360       .  A
C995        C999   1.487       .  S
C995       H1024   1.080       .  S
Co996      N1014   2.033       .  S
Co996      N1498   2.096       .  S
Co996     Cl2028   2.437   1_465  S
N997       C1035   1.352       .  A
N997       N2980   1.326       .  A
N997       Co998   2.129   1_565  S
Co998      N1001   2.071       .  S
Co998      N2006   2.071       .  S
C999       N1531   1.353   1_545  A
C999       C1823   1.530       .  S
N1000      N1007   1.325   1_545  A
N1000      N1030   1.314   1_545  A
N1001      N1513   1.322   1_554  A
N1001      N1037   1.330   1_545  A
N1002      C1031   1.341       .  A
N1002      N1012   1.313       .  A
H1003      C1028   1.079       .  S
N1004      N2973   1.326   1_455  A
N1004      N1025   1.326       .  A
N1004     Co1490   2.096       .  S
N1005      N1517   1.315   1_554  A
N1005      N1010   1.339       .  A
C1006      N1010   1.374       .  A
C1006      C1528   1.449   1_554  S
C1006      C1287   1.523       .  S
N1007      C1022   1.327       .  A
N1007     Co2017   2.072   1_565  S
C1008      N1036   1.366       .  A
C1008      C1011   1.496       .  S
C1008      H1042   1.074       .  S
C1011      N1032   1.343       .  A
C1011      C1315   1.532       .  S
N1012      N1018   1.324       .  A
N1013      C1039   1.348       .  A
N1013      N1015   1.318       .  A
N1013     Co3005   2.101       .  S
N1014      C1028   1.333       .  A
N1015      N1043   1.330       .  A
N1015     Co1033   2.097       .  S
H1016      C1039   1.081       .  S
H1017      C1034   1.077       .  S
N1018     Co1986   2.071   1_455  S
N1019      N1495   1.322       .  A
N1020      N1032   1.322       .  A
N1020      N1036   1.320       .  A
N1020     Co1029   2.042       .  S
C1021      N1025   1.347   1_655  A
C1021      C3011   1.475       .  S
C1021      C1346   1.507   1_655  S
C1022      C1041   1.453       .  S
C1022      H1026   1.078       .  S
N1023      C1034   1.325       .  A
N1023      N1499   1.315       .  A
N1023     Co1033   2.038       .  S
C1027      N1043   1.352       .  A
C1027      C1039   1.465       .  S
C1027      C1360   1.503       .  S
Co1029     N1995   2.072   1_455  S
Co1029     N2989   2.101       .  S
Co1029    Cl3016   2.472   1_455  S
N1030      C1041   1.338       .  A
C1031      C1416   1.443       .  S
Co1033    Cl1040   2.427       .  S
C1034      C1500   1.449       .  S
C1035      C2997   1.475       .  S
N1037      C1493   1.353   1_565  A
H1038      C2969   1.082       .  S
Cl1040    Co1984   2.437       .  S
Cl1040    Co3005   2.472       .  S
C1041      C1427   1.441       .  S
C1044      N1062   1.360       .  A
C1044      C1081   1.473       .  S
C1044      C1276   1.535       .  S
N1045      N1556   1.333       .  A
N1045      N1067   1.319       .  A
N1045     Co1082   2.108       .  S
C1046      N1071   1.336       .  A
C1046      C1084   1.452       .  S
C1046      H1091   1.081       .  S
H1047      C1088   1.079       .  S
C1048      N1566   1.324       .  A
C1048      C1052   1.458       .  S
C1048      H1077   1.082       .  S
Co1049     N1067   2.115       .  S
Co1049     N1551   2.044       .  S
Co1049     N1089   2.027       .  S
Co1049     N1065   2.153       .  S
Co1049    Cl1093   2.439       .  S
N1050      C1088   1.354       .  A
N1050      N1057   1.312       .  A
N1050     Co1545   2.118   1_554  S
Co1051     N1544   2.118       .  S
Co1051     N1548   2.008       .  S
Co1051     N1071   2.043       .  S
Co1051     N1058   2.089       .  S
Co1051    Cl1093   2.443       .  S
C1052      N1090   1.333       .  A
C1052      C1399   1.436       .  S
N1053      N1060   1.314       .  A
N1053      N1083   1.332       .  A
N1053     Co1086   2.115       .  S
N1054      N1566   1.315       .  A
N1054      N1090   1.308       .  A
N1054     Co1545   2.008   1_554  S
N1055      C1084   1.370       .  A
N1055      N1065   1.337       .  A
H1056      C1081   1.069       .  S
N1057      N1078   1.311       .  A
N1057     Co1543   2.044   1_554  S
N1058      N1076   1.320       .  A
N1058      N1063   1.330       .  A
C1059      N1063   1.354       .  A
C1059      C1087   1.450       .  S
C1059      C1259   1.494       .  S
N1060      C1075   1.337       .  A
N1060     Co1082   2.070       .  S
C1061      N1089   1.321       .  A
C1061      C1064   1.459       .  S
C1061      H1095   1.079       .  S
N1062      N1539   1.333       .  A
C1064      N1085   1.349       .  A
C1064      C1444   1.467       .  S
N1065      N1071   1.313       .  A
N1066      C1092   1.357       .  A
N1066      N1068   1.315       .  A
N1066     Co1082   2.136       .  S
N1067      C1575   1.344       .  A
N1068      N1096   1.323       .  A
N1068     Co1086   2.067       .  S
H1069      C1092   1.080       .  S
H1070      C1087   1.078       .  S
N1072      C1542   1.324       .  A
N1072      N1548   1.315       .  A
N1072     Co1086   2.039       .  S
N1073      N1085   1.316       .  A
N1073      N1089   1.316       .  A
N1073     Co1082   2.050       .  S
C1074      N1078   1.341       .  A
C1074      C1088   1.486       .  S
C1074      C1234   1.509       .  S
C1075      C1588   1.460       .  S
C1075      H1079   1.079       .  S
N1076      C1087   1.338       .  A
N1076     Co1086   2.092       .  S
C1080      N1096   1.343       .  A
C1080      C1092   1.480       .  S
C1080      C1248   1.503       .  S
C1081      N1561   1.344       .  A
Co1082    Cl1093   2.449       .  S
N1083      C1588   1.362       .  A
C1084      C1301   1.509       .  S
Co1086    Cl1093   2.431       .  S
C1094      N1577   1.362       .  A
C1094      C1569   1.460       .  S
C1094      C1290   1.498       .  S
C1097      N1115   1.347       .  A
C1097      C1134   1.481       .  S
C1097      C1262   1.515       .  S
N1098      N1115   1.319       .  A
N1098      N1120   1.322       .  A
N1098     Co1135   2.077       .  S
C1099      N1124   1.340       .  A
C1099      C3113   1.460       .  S
C1099      H1144   1.081       .  S
H1100      C1141   1.082       .  S
C1101      N1125   1.335       .  A
C1101      C1105   1.446       .  S
C1101      H1130   1.080       .  S
Co1102     N1120   2.114       .  S
Co1102     N1110   2.131       .  S
Co1102     N1142   2.102       .  S
Co1102     N1118   2.119       .  S
Co1102    Cl3122   2.468       .  S
N1103      C1141   1.348       .  A
N1103      N1110   1.320       .  A
N1103     Co3080   2.107   1_455  S
Co1104     N3079   2.107       .  S
Co1104     N1107   2.056       .  S
Co1104     N1124   2.086       .  S
Co1104     N1111   2.073       .  S
Co1104    Cl1146   2.449       .  S
C1105      N1143   1.354       .  A
C1105      C1472   1.458       .  S
N1106      N1113   1.315       .  A
N1106      N1136   1.330       .  A
N1106     Co1139   2.110       .  S
N1107      N1125   1.314       .  A
N1107      N1143   1.318       .  A
N1108      C1137   1.360       .  A
N1108      N1118   1.333       .  A
H1109      C1134   1.077       .  S
N1110      N1131   1.337       .  A
N1111      N1129   1.321       .  A
N1111      N1116   1.323       .  A
C1112      N1116   1.344       .  A
C1112      C1140   1.475       .  S
C1112      C1273   1.508       .  S
N1113      C3104   1.345       .  A
N1113     Co3111   2.083       .  S
C1114      N1142   1.345       .  A
C1114      C1117   1.477       .  S
C1114      H1148   1.080       .  S
C1117      N1138   1.331       .  A
C1117      C1388   1.472       .  S
N1118      N3100   1.319   1_455  A
N1119      C1145   1.345       .  A
N1119      N1121   1.311       .  A
N1119     Co3111   2.109       .  S
N1120      C1134   1.348       .  A
N1121      N1149   1.327       .  A
N1121     Co1139   2.077       .  S
H1122      C1145   1.075       .  S
H1123      C1140   1.082       .  S
N1124      N3094   1.319       .  A
N1125     Co1139   2.051       .  S
N1126      N1138   1.312       .  A
N1126      N1142   1.319       .  A
N1126     Co1135   2.017       .  S
C1127      N1131   1.365       .  A
C1127      C1141   1.468       .  S
C1127      C1217   1.528       .  S
C1128      N3089   1.345       .  A
C1128      C3123   1.466   1_455  S
C1128      H1132   1.080       .  S
N1129      C1140   1.354       .  A
N1129     Co1139   2.124       .  S
C1133      N1149   1.360       .  A
C1133      C1145   1.482       .  S
C1133      C1206   1.537       .  S
Co1135     N3089   2.083       .  S
Co1135     N3095   2.109   1_455  S
Co1135    Cl3122   2.439       .  S
N1136      C1147   1.354       .  A
C1137      C3075   1.460   1_455  S
C1137      C1343   1.506       .  S
Co1139    Cl1146   2.440       .  S
Cl1146    Co3078   2.468       .  S
Cl1146    Co3111   2.439       .  S
C1147      C3104   1.466       .  S
C1147      C1357   1.504       .  S
C1150      N1168   1.374       .  A
C1150      C1187   1.452   1_565  S
C1150      C1318   1.529       .  S
N1151      N1168   1.345   1_545  A
N1151      N1173   1.316       .  A
C1152      N1177   1.330       .  A
C1152      C1190   1.450       .  S
C1152      H1197   1.081       .  S
H1153      C1194   1.081       .  S
C1154      N1178   1.342       .  A
C1154      C1158   1.464       .  S
C1154      H1183   1.081       .  S
Co1155     N1195   2.180       .  S
Co1155     N1171   2.036       .  S
N1156      C1194   1.349       .  A
N1156      N1163   1.325       .  A
N1156     Co1157   2.118   1_565  S
Co1157     N1160   2.070   1_545  S
Co1157    Cl1199   2.471       .  S
C1158      N1196   1.352       .  A
C1158      C1231   1.489       .  S
N1159      N1166   1.316       .  A
N1159      N1189   1.309       .  A
N1159     Co1192   2.010       .  S
N1160      N1178   1.315       .  A
N1160      N1196   1.325       .  A
N1161      C1190   1.333       .  A
N1161      N1171   1.315       .  A
H1162      C1187   1.081       .  S
N1163      N1184   1.336       .  A
N1164      N1182   1.318       .  A
N1164      N1169   1.339       .  A
C1165      N1169   1.370       .  A
C1165      C1193   1.455       .  S
C1165      C1332   1.516       .  S
N1166      C1181   1.327       .  A
C1167      N1195   1.365       .  A
C1167      C1170   1.504       .  S
C1167      H1201   1.079       .  S
C1170      N1191   1.337       .  A
C1170      C1245   1.530       .  S
N1171      N1177   1.324       .  A
N1172      C1198   1.348       .  A
N1172      N1174   1.322       .  A
N1172     Co1188   2.122       .  S
N1173      C1187   1.331       .  A
N1174      N1202   1.330       .  A
H1175      C1198   1.079       .  S
H1176      C1193   1.081       .  S
N1178     Co1192   2.101       .  S
N1179      N1191   1.314       .  A
N1179      N1195   1.317       .  A
N1179     Co1188   2.033       .  S
C1180      N1184   1.361       .  A
C1180      C1194   1.462       .  S
C1180      C1220   1.519       .  S
C1181      C1200   1.463       .  S
C1181      H1185   1.074       .  S
N1182      C1193   1.339       .  A
C1186      N1202   1.353       .  A
C1186      C1198   1.464       .  S
C1186      C1203   1.507       .  S
N1189      C1200   1.329       .  A
C1190      C1371   1.441       .  S
Co1192    Cl1199   2.434   1_565  S
C1200      C1455   1.430       .  S
C1203      C1204   1.411       .  A
C1203      C1208   1.409       .  A
C1204      C1205   1.422       .  A
C1204      C1209   1.452       .  S
C1205      C1206   1.432       .  A
C1205      C1212   1.451       .  S
C1206      C1207   1.432       .  A
C1207      C1208   1.424       .  A
C1207      C1210   1.447       .  S
C1208      C1211   1.453       .  S
C1209      N1216   1.157       .  T
C1210      N1215   1.158       .  T
C1211      N1213   1.157       .  T
C1212      N1214   1.158       .  T
C1217      C1218   1.422       .  A
C1217      C1222   1.418       .  A
C1218      C1219   1.427       .  A
C1218      C1223   1.449       .  S
C1219      C1220   1.416       .  A
C1219      C1226   1.450       .  S
C1220      C1221   1.416       .  A
C1221      C1222   1.428       .  A
C1221      C1224   1.450       .  S
C1222      C1225   1.444       .  S
C1223      N1230   1.157       .  T
C1224      N1229   1.157       .  T
C1225      N1227   1.155       .  T
C1226      N1228   1.157       .  T
C1231      C1232   1.406       .  A
C1231      C1236   1.413       .  A
C1232      C1233   1.403       .  A
C1232      C1237   1.453       .  S
C1233      C1234   1.427       .  A
C1233      C1240   1.453       .  S
C1234      C1235   1.420       .  A
C1235      C1236   1.421       .  A
C1235      C1238   1.446       .  S
C1236      C1239   1.451       .  S
C1237      N1244   1.158       .  T
C1238      N1243   1.157       .  T
C1239      N1241   1.158       .  T
C1240      N1242   1.157       .  T
C1245      C1246   1.440       .  A
C1245      C1250   1.419       .  A
C1246      C1247   1.419       .  A
C1246      C1251   1.452       .  S
C1247      C1248   1.402       .  A
C1247      C1254   1.452       .  S
C1248      C1249   1.413       .  A
C1249      C1250   1.425       .  A
C1249      C1252   1.445       .  S
C1250      C1253   1.448       .  S
C1251      N1258   1.158       .  T
C1252      N1257   1.155       .  T
C1253      N1255   1.158       .  T
C1254      N1256   1.157       .  T
C1259      C1260   1.412       .  A
C1259      C1264   1.415       .  A
C1260      C1261   1.412       .  A
C1260      C1265   1.454       .  S
C1261      C1262   1.425       .  A
C1261      C1268   1.452       .  S
C1262      C1263   1.419       .  A
C1263      C1264   1.420       .  A
C1263      C1266   1.446       .  S
C1264      C1267   1.452       .  S
C1265      N1272   1.158       .  T
C1266      N1271   1.157       .  T
C1267      N1269   1.157       .  T
C1268      N1270   1.157       .  T
C1273      C1274   1.414       .  A
C1273      C1278   1.411       .  A
C1274      C1275   1.426       .  A
C1274      C1279   1.452       .  S
C1275      C1276   1.429       .  A
C1275      C1282   1.448       .  S
C1276      C1277   1.428       .  A
C1277      C1278   1.419       .  A
C1277      C1280   1.447       .  S
C1278      C1281   1.454       .  S
C1279      N1286   1.158       .  T
C1280      N1285   1.157       .  T
C1281      N1283   1.157       .  T
C1282      N1284   1.157       .  T
C1287      C1782   1.434       .  A
C1287      C1292   1.414       .  A
C1288      C1781   1.434       .  A
C1288      C1289   1.414       .  A
C1288      C1293   1.453       .  S
C1289      C1784   1.405       .  A
C1289      C1296   1.453       .  S
C1290      C1783   1.405       .  A
C1290      C1291   1.414       .  A
C1291      C1292   1.424       .  A
C1291      C1294   1.448       .  S
C1292      C1295   1.443       .  S
C1293      N1300   1.158       .  T
C1294      N1299   1.157       .  T
C1295      N1297   1.156       .  T
C1296      N1298   1.157       .  T
C1301      C1302   1.418       .  A
C1301      C1306   1.409       .  A
C1302      C1303   1.425       .  A
C1302      C1307   1.447       .  S
C1303      C1304   1.414       .  A
C1303      C1310   1.449       .  S
C1304      C1305   1.433       .  A
C1305      C1306   1.421       .  A
C1305      C1308   1.449       .  S
C1306      C1309   1.454       .  S
C1307      N1314   1.156       .  T
C1308      N1313   1.157       .  T
C1309      N1311   1.158       .  T
C1310      N1312   1.157       .  T
C1315      C1316   1.425       .  A
C1315      C1320   1.422       .  A
C1316      C1321   1.450       .  S
C1317      C1318   1.416       .  A
C1317      C1324   1.455       .  S
C1319      C1320   1.439       .  A
C1319      C1322   1.447       .  S
C1320      C1323   1.447       .  S
C1321      N1328   1.157       .  T
C1322      N1327   1.157       .  T
C1323      N1325   1.157       .  T
C1324      N1326   1.157       .  T
C1329      C1493   1.530       .  S
C1329      C1334   1.419   1_545  A
C1330      C1331   1.425       .  A
C1330      C1335   1.436       .  S
C1331      C1332   1.410       .  A
C1331      C1338   1.448       .  S
C1333      C1334   1.427       .  A
C1333      C1336   1.443       .  S
C1334      C1337   1.447       .  S
C1335      N1342   1.154   1_554  T
C1336      N1341   1.156       .  T
C1337      N1339   1.157       .  T
C1338      N1340   1.157       .  T
C1343      C3320   1.413   1_455  A
C1343      C1348   1.414       .  A
C1344      C3319   1.413       .  A
C1344      C1345   1.418       .  A
C1344      C1349   1.445       .  S
C1345      C3322   1.413       .  A
C1345      C1352   1.450       .  S
C1346      C3321   1.413   1_455  A
C1346      C1347   1.422       .  A
C1347      C1348   1.422       .  A
C1347      C1350   1.450       .  S
C1348      C1351   1.450       .  S
C1349      N1356   1.155       .  T
C1350      N1355   1.157       .  T
C1351      N1353   1.158       .  T
C1352      N1354   1.157       .  T
C1357      C1358   1.415       .  A
C1357      C1362   1.411       .  A
C1358      C1359   1.421       .  A
C1358      C1363   1.449       .  S
C1359      C1360   1.416       .  A
C1359      C1366   1.450       .  S
C1360      C1361   1.415       .  A
C1361      C1362   1.419       .  A
C1361      C3340   1.450       .  S
C1362      C3341   1.447       .  S
C1363      N1370   1.157       .  T
C1364      C3337   1.450       .  S
C1364      N1369   1.157       .  T
C1365      C3338   1.447       .  S
C1365      N1367   1.156       .  T
C1366      N1368   1.157       .  T
C1371      C1372   1.386       .  A
C1371      C1376   1.393       .  A
C1372      C1373   1.400       .  A
C1372      C1377   1.460       .  S
C1373      C1374   1.457       .  A
C1373      C1380   1.452       .  S
C1374      C1375   1.420       .  A
C1375      C1376   1.398       .  A
C1375      C1378   1.432       .  S
C1376      C1379   1.453       .  S
C1377      N1384   1.157       .  T
C1378      N1383   1.152       .  T
C1379      N1381   1.157       .  T
C1380      N1382   1.157       .  T
C1385      C1386   1.466       .  A
C1385      C1390   1.431       .  A
C1386      C1387   1.401       .  A
C1386      C1391   1.454       .  S
C1387      C1388   1.375       .  A
C1387      C1394   1.452       .  S
C1388      C1389   1.404       .  A
C1389      C1390   1.408       .  A
C1389      C1392   1.446   1_455  S
C1390      C1393   1.451       .  S
C1391      N1398   1.158       .  T
C1392      N1397   1.155       .  T
C1393      N1395   1.157       .  T
C1394      N1396   1.157   1_455  T
C1399      C1400   1.409       .  A
C1399      C1404   1.384       .  A
C1400      C1401   1.379       .  A
C1400      C1899   1.450       .  S
C1401      C1402   1.425       .  A
C1401      C1408   1.454       .  S
C1402      C1403   1.448       .  A
C1403      C1404   1.389       .  A
C1403      C1406   1.452       .  S
C1404      C1407   1.454       .  S
C1405      C1894   1.450       .  S
C1405      N1412   1.154       .  T
C1406      N1411   1.156       .  T
C1407      N1409   1.157       .  T
C1408      N1410   1.158       .  T
C1413      C1414   1.429       .  A
C1413      C1418   1.427       .  A
C1414      C1415   1.396       .  A
C1414      C1419   1.449       .  S
C1415      C1416   1.407       .  A
C1415      C1422   1.453       .  S
C1416      C1417   1.391       .  A
C1417      C1418   1.395       .  A
C1417      C1420   1.451       .  S
C1418      C1421   1.445       .  S
C1419      N1426   1.157       .  T
C1420      N1425   1.157       .  T
C1421      N1423   1.158       .  T
C1422      N3400   1.156       .  T
N1424      C3398   1.156       .  T
C1427      C1428   1.412       .  A
C1427      C1432   1.391       .  A
C1428      C1429   1.409       .  A
C1428      C1433   1.452       .  S
C1429      C1430   1.413       .  A
C1429      C1436   1.444       .  S
C1430      C1431   1.428       .  A
C1431      C1432   1.387       .  A
C1431      C1434   1.444       .  S
C1432      C1435   1.451       .  S
C1433      N3416   1.157       .  T
C1434      N1439   1.157       .  T
C1435      N1437   1.157       .  T
C1436      N1438   1.156       .  T
N1440      C3409   1.157       .  T
C1441      C1442   1.409       .  A
C1441      C1446   1.417       .  A
C1442      C1443   1.395       .  A
C1442      C1447   1.447       .  S
C1443      C1444   1.404       .  A
C1443      C1450   1.449       .  S
C1444      C1445   1.406       .  A
C1445      C1446   1.399       .  A
C1445      C1448   1.451       .  S
C1446      C1449   1.448       .  S
C1447      N1454   1.158       .  T
C1448      N1453   1.157       .  T
C1449      N1451   1.158       .  T
C1450      N1452   1.157       .  T
C1455      C1456   1.406       .  A
C1455      C1460   1.396       .  A
C1456      C1457   1.391       .  A
C1456      C1461   1.455       .  S
C1457      C1458   1.423       .  A
C1457      C1464   1.448       .  S
C1458      C1459   1.423       .  A
C1459      C1460   1.394       .  A
C1459      C1462   1.448       .  S
C1460      C1463   1.450       .  S
C1461      N1468   1.157       .  T
C1462      N1467   1.158       .  T
C1463      N1465   1.157       .  T
C1464      N1466   1.157       .  T
C1469      C1470   1.431       .  A
C1469      C1474   1.410       .  A
C1470      C1471   1.417       .  A
C1470      C1475   1.440       .  S
C1471      C1472   1.406       .  A
C1471      C1478   1.452       .  S
C1472      C1473   1.413       .  A
C1473      C1474   1.361       .  A
C1473      C1476   1.454       .  S
C1474      C1477   1.451       .  S
C1475      N1482   1.156       .  T
C1476      N1481   1.158       .  T
C1477      N1479   1.158       .  T
C1478      N1480   1.157       .  T
C1483      C1924   1.559       .  S
C1483      C1935   1.556       .  S
C1483      C1952   1.557       .  S
C1483      C1963   1.561       .  S
C1484      C1868   1.599       .  S
C1484      C1879   1.591       .  S
C1484      C1896   1.516       .  S
C1484      C1907   1.568       .  S
C1485      N1503   1.369       .  A
C1485      C1522   1.452       .  S
C1485      C1798   1.527       .  S
N1486      N1503   1.338       .  A
N1486      N1508   1.316       .  A
C1487      N1512   1.329       .  A
C1487      C1525   1.455       .  S
C1487      H3508   1.082       .  S
H1488      C1529   1.081       .  S
C1489      N1513   1.360       .  A
C1489      C1493   1.487   1_556  S
C1489      H1518   1.080       .  S
Co1490     N1508   2.033   1_554  S
Co1490    Cl2522   2.437   1_464  S
N1491      C1529   1.352       .  A
N1491      N3474   1.326       .  A
N1491     Co1492   2.129   1_565  S
Co1492     N1495   2.071       .  S
Co1492     N2500   2.071       .  S
N1494      N1501   1.325   1_545  A
N1494      N1524   1.314   1_545  A
N1495      N1531   1.330   1_545  A
N1496      C1525   1.341       .  A
N1496      N1506   1.313       .  A
H1497      C1522   1.079       .  S
N1498      N3467   1.326   1_455  A
N1498      N1519   1.326       .  A
N1499      N1504   1.339       .  A
C1500      N1504   1.374       .  A
C1500      C1781   1.523       .  S
N1501      C1516   1.327       .  A
N1501     Co2511   2.072   1_565  S
C1502      N1530   1.366       .  A
C1502      C1505   1.496       .  S
C1502      H1536   1.074       .  S
C1505      N1526   1.343       .  A
C1505      C1809   1.532       .  S
N1506      N1512   1.324       .  A
N1507      C1533   1.348       .  A
N1507      N1509   1.318       .  A
N1507     Co3499   2.101       .  S
N1508      C1522   1.333       .  A
N1509      N1537   1.330       .  A
N1509     Co1527   2.097       .  S
H1510      C1533   1.081       .  S
H1511      C1528   1.077       .  S
N1512     Co2480   2.071   1_455  S
N1514      N1526   1.322       .  A
N1514      N1530   1.320       .  A
N1514     Co1523   2.042       .  S
C1515      N1519   1.347   1_655  A
C1515      C3505   1.475       .  S
C1515      C1840   1.507   1_655  S
C1516      C1535   1.453       .  S
C1516      H1520   1.078       .  S
N1517      C1528   1.325       .  A
N1517     Co1527   2.038       .  S
C1521      N1537   1.352       .  A
C1521      C1533   1.465       .  S
C1521      C1854   1.503       .  S
Co1523     N2489   2.072   1_455  S
Co1523     N3483   2.101       .  S
Co1523    Cl3510   2.472   1_455  S
N1524      C1535   1.338       .  A
C1525      C1910   1.443       .  S
Co1527    Cl1534   2.427       .  S
C1529      C3491   1.475       .  S
H1532      C3463   1.082       .  S
Cl1534    Co2478   2.437   1_556  S
Cl1534    Co3499   2.472       .  S
C1535      C1921   1.441       .  S
C1538      N1556   1.360       .  A
C1538      C1575   1.472       .  S
C1538      C1770   1.535       .  S
N1539      N1561   1.319       .  A
N1539     Co1576   2.108   1_554  S
C1540      N1565   1.336       .  A
C1540      C1578   1.452       .  S
C1540      H1585   1.081       .  S
H1541      C1582   1.079       .  S
C1542      C1546   1.458       .  S
C1542      H1571   1.082       .  S
Co1543     N1561   2.115   1_556  S
Co1543     N1583   2.027       .  S
Co1543     N1559   2.153       .  S
Co1543    Cl1587   2.439       .  S
N1544      C1582   1.354       .  A
N1544      N1551   1.312       .  A
Co1545     N1565   2.043       .  S
Co1545     N1552   2.089       .  S
Co1545    Cl1587   2.443       .  S
C1546      N1584   1.333       .  A
C1546      C1893   1.436       .  S
N1547      N1554   1.314   1_554  A
N1547      N1577   1.332       .  A
N1547     Co1580   2.115   1_554  S
N1548      N1584   1.308       .  A
N1549      C1578   1.370       .  A
N1549      N1559   1.337       .  A
H1550      C1575   1.069       .  S
N1551      N1572   1.311       .  A
N1552      N1570   1.320       .  A
N1552      N1557   1.330       .  A
C1553      N1557   1.354       .  A
C1553      C1581   1.450       .  S
C1553      C1753   1.494       .  S
N1554      C1569   1.337   1_556  A
N1554     Co1576   2.070       .  S
C1555      N1583   1.321       .  A
C1555      C1558   1.459       .  S
C1555      H1589   1.079       .  S
C1558      N1579   1.349       .  A
C1558      C1938   1.467       .  S
N1559      N1565   1.313       .  A
N1560      C1586   1.357       .  A
N1560      N1562   1.315       .  A
N1560     Co1576   2.136       .  S
N1562      N1590   1.323       .  A
N1562     Co1580   2.067       .  S
H1563      C1586   1.080       .  S
H1564      C1581   1.078       .  S
N1566     Co1580   2.039   1_554  S
N1567      N1579   1.316       .  A
N1567      N1583   1.316       .  A
N1567     Co1576   2.050       .  S
C1568      N1572   1.341       .  A
C1568      C1582   1.486       .  S
C1568      C1728   1.509       .  S
C1569      H1573   1.079       .  S
N1570      C1581   1.338       .  A
N1570     Co1580   2.092       .  S
C1574      N1590   1.343       .  A
C1574      C1586   1.480       .  S
C1574      C1742   1.503       .  S
Co1576    Cl1587   2.449       .  S
C1578      C1795   1.509       .  S
Co1580    Cl1587   2.431       .  S
C1588      C1784   1.497       .  S
C1591      N1609   1.347       .  A
C1591      C1628   1.481       .  S
C1591      C1756   1.515       .  S
N1592      N1609   1.319       .  A
N1592      N1614   1.322       .  A
N1592     Co1629   2.077       .  S
C1593      N1618   1.340       .  A
C1593      C3607   1.460       .  S
C1593      H1638   1.081       .  S
H1594      C1635   1.082       .  S
C1595      N1619   1.335       .  A
C1595      C1599   1.446       .  S
C1595      H1624   1.080       .  S
Co1596     N1614   2.115       .  S
Co1596     N1604   2.131       .  S
Co1596     N1636   2.102       .  S
Co1596     N1612   2.119       .  S
Co1596    Cl3616   2.468       .  S
N1597      C1635   1.348       .  A
N1597      N1604   1.320       .  A
N1597     Co3574   2.107   1_455  S
Co1598     N3573   2.107       .  S
Co1598     N1601   2.056       .  S
Co1598     N1618   2.086       .  S
Co1598     N1605   2.073       .  S
Co1598    Cl1640   2.449       .  S
C1599      N1637   1.354       .  A
C1599      C1966   1.458       .  S
N1600      N1607   1.315       .  A
N1600      N1630   1.330       .  A
N1600     Co1633   2.110       .  S
N1601      N1619   1.314       .  A
N1601      N1637   1.318       .  A
N1602      C1631   1.360       .  A
N1602      N1612   1.333       .  A
H1603      C1628   1.077       .  S
N1604      N1625   1.337       .  A
N1605      N1623   1.321       .  A
N1605      N1610   1.323       .  A
C1606      N1610   1.344       .  A
C1606      C1634   1.475       .  S
C1606      C1767   1.508       .  S
N1607      C3598   1.345       .  A
N1607     Co3605   2.083       .  S
C1608      N1636   1.345       .  A
C1608      C1611   1.477       .  S
C1608      H1642   1.080       .  S
C1611      N1632   1.331       .  A
C1611      C1882   1.471       .  S
N1612      N3594   1.319   1_455  A
N1613      C1639   1.345       .  A
N1613      N1615   1.311       .  A
N1613     Co3605   2.109       .  S
N1614      C1628   1.348       .  A
N1615      N1643   1.327       .  A
N1615     Co1633   2.077       .  S
H1616      C1639   1.075       .  S
H1617      C1634   1.082       .  S
N1618      N3588   1.319       .  A
N1619     Co1633   2.051       .  S
N1620      N1632   1.312       .  A
N1620      N1636   1.319       .  A
N1620     Co1629   2.017       .  S
C1621      N1625   1.365       .  A
C1621      C1635   1.468       .  S
C1621      C1711   1.528       .  S
C1622      N3583   1.345       .  A
C1622      C3617   1.466   1_455  S
C1622      H1626   1.080       .  S
N1623      C1634   1.354       .  A
N1623     Co1633   2.124       .  S
C1627      N1643   1.360       .  A
C1627      C1639   1.482       .  S
C1627      C1700   1.537       .  S
Co1629     N3583   2.083       .  S
Co1629     N3589   2.109   1_455  S
Co1629    Cl3616   2.439       .  S
N1630      C1641   1.354       .  A
C1631      C3569   1.460   1_455  S
C1631      C1837   1.506       .  S
Co1633    Cl1640   2.440       .  S
Cl1640    Co3572   2.468       .  S
Cl1640    Co3605   2.439       .  S
C1641      C3598   1.466       .  S
C1641      C1851   1.504       .  S
C1644      N1662   1.374       .  A
C1644      C1681   1.452   1_565  S
C1644      C1812   1.529       .  S
N1645      N1662   1.345   1_545  A
N1645      N1667   1.316       .  A
C1646      N1671   1.330       .  A
C1646      C1684   1.450       .  S
C1646      H1691   1.081       .  S
H1647      C1688   1.081       .  S
C1648      N1672   1.342       .  A
C1648      C1652   1.464       .  S
C1648      H1677   1.081       .  S
Co1649     N1689   2.180       .  S
Co1649     N1665   2.036       .  S
N1650      C1688   1.349       .  A
N1650      N1657   1.325       .  A
N1650     Co1651   2.118   1_565  S
Co1651     N1654   2.070   1_545  S
Co1651    Cl1693   2.471       .  S
C1652      N1690   1.352       .  A
C1652      C1725   1.489       .  S
N1653      N1660   1.316       .  A
N1653      N1683   1.309       .  A
N1653     Co1686   2.010       .  S
N1654      N1672   1.315       .  A
N1654      N1690   1.325       .  A
N1655      C1684   1.333       .  A
N1655      N1665   1.315       .  A
H1656      C1681   1.081       .  S
N1657      N1678   1.336       .  A
N1658      N1676   1.318       .  A
N1658      N1663   1.339       .  A
C1659      N1663   1.370       .  A
C1659      C1687   1.455       .  S
C1659      C1826   1.516       .  S
N1660      C1675   1.327       .  A
C1661      N1689   1.365       .  A
C1661      C1664   1.504       .  S
C1661      H1695   1.079       .  S
C1664      N1685   1.337       .  A
C1664      C1739   1.530       .  S
N1665      N1671   1.324       .  A
N1666      C1692   1.348       .  A
N1666      N1668   1.322       .  A
N1666     Co1682   2.122       .  S
N1667      C1681   1.331       .  A
N1668      N1696   1.330       .  A
H1669      C1692   1.079       .  S
H1670      C1687   1.081       .  S
N1672     Co1686   2.101       .  S
N1673      N1685   1.314       .  A
N1673      N1689   1.317       .  A
N1673     Co1682   2.033       .  S
C1674      N1678   1.361       .  A
C1674      C1688   1.462       .  S
C1674      C1714   1.519       .  S
C1675      C1694   1.463       .  S
C1675      H1679   1.074       .  S
N1676      C1687   1.339       .  A
C1680      N1696   1.353       .  A
C1680      C1692   1.464       .  S
C1680      C1697   1.507       .  S
N1683      C1694   1.329       .  A
C1684      C1865   1.441       .  S
Co1686    Cl1693   2.434   1_565  S
C1694      C1949   1.430       .  S
C1697      C1698   1.411       .  A
C1697      C1702   1.409       .  A
C1698      C1699   1.422       .  A
C1698      C1703   1.452       .  S
C1699      C1700   1.432       .  A
C1699      C1706   1.451       .  S
C1700      C1701   1.432       .  A
C1701      C1702   1.424       .  A
C1701      C1704   1.447       .  S
C1702      C1705   1.453       .  S
C1703      N1710   1.157       .  T
C1704      N1709   1.158       .  T
C1705      N1707   1.157       .  T
C1706      N1708   1.158       .  T
C1711      C1712   1.422       .  A
C1711      C1716   1.418       .  A
C1712      C1713   1.427       .  A
C1712      C1717   1.449       .  S
C1713      C1714   1.416       .  A
C1713      C1720   1.450       .  S
C1714      C1715   1.416       .  A
C1715      C1716   1.428       .  A
C1715      C1718   1.450       .  S
C1716      C1719   1.444       .  S
C1717      N1724   1.157       .  T
C1718      N1723   1.157       .  T
C1719      N1721   1.155       .  T
C1720      N1722   1.157       .  T
C1725      C1726   1.406       .  A
C1725      C1730   1.413       .  A
C1726      C1727   1.403       .  A
C1726      C1731   1.453       .  S
C1727      C1728   1.427       .  A
C1727      C1734   1.453       .  S
C1728      C1729   1.420       .  A
C1729      C1730   1.421       .  A
C1729      C1732   1.446       .  S
C1730      C1733   1.451       .  S
C1731      N1738   1.158       .  T
C1732      N1737   1.157       .  T
C1733      N1735   1.158       .  T
C1734      N1736   1.157       .  T
C1739      C1740   1.440       .  A
C1739      C1744   1.419       .  A
C1740      C1741   1.419       .  A
C1740      C1745   1.452       .  S
C1741      C1742   1.402       .  A
C1741      C1748   1.452       .  S
C1742      C1743   1.413       .  A
C1743      C1744   1.425       .  A
C1743      C1746   1.445       .  S
C1744      C1747   1.448       .  S
C1745      N1752   1.158       .  T
C1746      N1751   1.155       .  T
C1747      N1749   1.158       .  T
C1748      N1750   1.157       .  T
C1753      C1754   1.412       .  A
C1753      C1758   1.415       .  A
C1754      C1755   1.412       .  A
C1754      C1759   1.454       .  S
C1755      C1756   1.425       .  A
C1755      C1762   1.452       .  S
C1756      C1757   1.419       .  A
C1757      C1758   1.420       .  A
C1757      C1760   1.446       .  S
C1758      C1761   1.452       .  S
C1759      N1766   1.158       .  T
C1760      N1765   1.157       .  T
C1761      N1763   1.157       .  T
C1762      N1764   1.157       .  T
C1767      C1768   1.414       .  A
C1767      C1772   1.411       .  A
C1768      C1769   1.426       .  A
C1768      C1773   1.452       .  S
C1769      C1770   1.429       .  A
C1769      C1776   1.448       .  S
C1770      C1771   1.428       .  A
C1771      C1772   1.419       .  A
C1771      C1774   1.447       .  S
C1772      C1775   1.454       .  S
C1773      N1780   1.158       .  T
C1774      N1779   1.157       .  T
C1775      N1777   1.157       .  T
C1776      N1778   1.157       .  T
C1781      C1786   1.414       .  A
C1782      C1783   1.414       .  A
C1782      C1787   1.453   1_554  S
C1783      C1790   1.453   1_554  S
C1784      C1785   1.414       .  A
C1785      C1786   1.424       .  A
C1785      C1788   1.448       .  S
C1786      C1789   1.443       .  S
C1787      N1794   1.158       .  T
C1788      N1793   1.157       .  T
C1789      N1791   1.156       .  T
C1790      N1792   1.157       .  T
C1795      C1796   1.418       .  A
C1795      C1800   1.409       .  A
C1796      C1797   1.425       .  A
C1796      C1801   1.447       .  S
C1797      C1798   1.414       .  A
C1797      C1804   1.449       .  S
C1798      C1799   1.433       .  A
C1799      C1800   1.421       .  A
C1799      C1802   1.449       .  S
C1800      C1803   1.454       .  S
C1801      N1808   1.156       .  T
C1802      N1807   1.157   1_556  T
C1803      N1805   1.158   1_556  T
C1804      N1806   1.157       .  T
C1809      C1810   1.425       .  A
C1809      C1814   1.422       .  A
C1810      C1815   1.450       .  S
C1811      C1812   1.416       .  A
C1811      C1818   1.455       .  S
C1813      C1814   1.439       .  A
C1813      C1816   1.447       .  S
C1814      C1817   1.447       .  S
C1815      N1822   1.157       .  T
C1816      N1821   1.157       .  T
C1817      N1819   1.157       .  T
C1818      N1820   1.157       .  T
C1823      C1828   1.419   1_545  A
C1824      C1825   1.425       .  A
C1824      C1829   1.436       .  S
C1825      C1826   1.410       .  A
C1825      C1832   1.448       .  S
C1827      C1828   1.427       .  A
C1827      C1830   1.443       .  S
C1828      C1831   1.447       .  S
C1829      N1836   1.154       .  T
C1830      N1835   1.156       .  T
C1831      N1833   1.157       .  T
C1832      N1834   1.157       .  T
C1837      C3814   1.413   1_455  A
C1837      C1842   1.414       .  A
C1838      C3813   1.413       .  A
C1838      C1839   1.418       .  A
C1838      C1843   1.445       .  S
C1839      C3816   1.413       .  A
C1839      C1846   1.450       .  S
C1840      C3815   1.413   1_455  A
C1840      C1841   1.422       .  A
C1841      C1842   1.422       .  A
C1841      C1844   1.450       .  S
C1842      C1845   1.450       .  S
C1843      N1850   1.155       .  T
C1844      N1849   1.157       .  T
C1845      N1847   1.158       .  T
C1846      N1848   1.157       .  T
C1851      C1852   1.415       .  A
C1851      C1856   1.411       .  A
C1852      C1853   1.421       .  A
C1852      C1857   1.449       .  S
C1853      C1854   1.416       .  A
C1853      C1860   1.450       .  S
C1854      C1855   1.415       .  A
C1855      C1856   1.419       .  A
C1855      C3834   1.450       .  S
C1856      C3835   1.447       .  S
C1857      N1864   1.157       .  T
C1858      C3831   1.450       .  S
C1858      N1863   1.157       .  T
C1859      C3832   1.447       .  S
C1859      N1861   1.156       .  T
C1860      N1862   1.157       .  T
C1865      C1866   1.386       .  A
C1865      C1870   1.393       .  A
C1866      C1867   1.400       .  A
C1866      C1871   1.460       .  S
C1867      C1868   1.457       .  A
C1867      C1874   1.452       .  S
C1868      C1869   1.420       .  A
C1869      C1870   1.398       .  A
C1869      C1872   1.432       .  S
C1870      C1873   1.453       .  S
C1871      N1878   1.157       .  T
C1872      N1877   1.152       .  T
C1873      N1875   1.157       .  T
C1874      N1876   1.157       .  T
C1879      C1880   1.466       .  A
C1879      C1884   1.431       .  A
C1880      C1881   1.401       .  A
C1880      C1885   1.454       .  S
C1881      C1882   1.375       .  A
C1881      C1888   1.452       .  S
C1882      C1883   1.404       .  A
C1883      C1884   1.408       .  A
C1883      C1886   1.446   1_455  S
C1884      C1887   1.451       .  S
C1885      N1892   1.158       .  T
C1886      N1891   1.155       .  T
C1887      N1889   1.157       .  T
C1888      N1890   1.157   1_455  T
C1893      C1894   1.409       .  A
C1893      C1898   1.384       .  A
C1894      C1895   1.379       .  A
C1895      C1896   1.425       .  A
C1895      C1902   1.454       .  S
C1896      C1897   1.448       .  A
C1897      C1898   1.389       .  A
C1897      C1900   1.452       .  S
C1898      C1901   1.454       .  S
C1899      N1906   1.154   1_554  T
C1900      N1905   1.156       .  T
C1901      N1903   1.157       .  T
C1902      N1904   1.158       .  T
C1907      C1908   1.429       .  A
C1907      C1912   1.427       .  A
C1908      C1909   1.396       .  A
C1908      C1913   1.449       .  S
C1909      C1910   1.407       .  A
C1909      C1916   1.453       .  S
C1910      C1911   1.391       .  A
C1911      C1912   1.395       .  A
C1911      C1914   1.451       .  S
C1912      C1915   1.445       .  S
C1913      N1920   1.157       .  T
C1914      N1919   1.157       .  T
C1915      N1917   1.158       .  T
C1916      N3894   1.156       .  T
N1918      C3892   1.156       .  T
C1921      C1922   1.412       .  A
C1921      C1926   1.391       .  A
C1922      C1923   1.409       .  A
C1922      C1927   1.452       .  S
C1923      C1924   1.413       .  A
C1923      C1930   1.444       .  S
C1924      C1925   1.428       .  A
C1925      C1926   1.387       .  A
C1925      C1928   1.444       .  S
C1926      C1929   1.451       .  S
C1927      N3910   1.157       .  T
C1928      N1933   1.157       .  T
C1929      N1931   1.157       .  T
C1930      N1932   1.156       .  T
N1934      C3903   1.157       .  T
C1935      C1936   1.409       .  A
C1935      C1940   1.417       .  A
C1936      C1937   1.395       .  A
C1936      C1941   1.447       .  S
C1937      C1938   1.404       .  A
C1937      C1944   1.449       .  S
C1938      C1939   1.406       .  A
C1939      C1940   1.399       .  A
C1939      C1942   1.451       .  S
C1940      C1943   1.448       .  S
C1941      N1948   1.158       .  T
C1942      N1947   1.157       .  T
C1943      N1945   1.158       .  T
C1944      N1946   1.157       .  T
C1949      C1950   1.406       .  A
C1949      C1954   1.396       .  A
C1950      C1951   1.391       .  A
C1950      C1955   1.455       .  S
C1951      C1952   1.423       .  A
C1951      C1958   1.448       .  S
C1952      C1953   1.423       .  A
C1953      C1954   1.394       .  A
C1953      C1956   1.448       .  S
C1954      C1957   1.450       .  S
C1955      N1962   1.157       .  T
C1956      N1961   1.158       .  T
C1957      N1959   1.157       .  T
C1958      N1960   1.157       .  T
C1963      C1964   1.431       .  A
C1963      C1968   1.410       .  A
C1964      C1965   1.417       .  A
C1964      C1969   1.440       .  S
C1965      C1966   1.406       .  A
C1965      C1972   1.452       .  S
C1966      C1967   1.413       .  A
C1967      C1968   1.361       .  A
C1967      C1970   1.454       .  S
C1968      C1971   1.451       .  S
C1969      N1976   1.156       .  T
C1970      N1975   1.158       .  T
C1971      N1973   1.158       .  T
C1972      N1974   1.157       .  T
C1977      C2418   1.559       .  S
C1977      C2429   1.556       .  S
C1977      C2446   1.557       .  S
C1977      C2457   1.561       .  S
C1978      C2362   1.599       .  S
C1978      C2373   1.591       .  S
C1978      C2390   1.516       .  S
C1978      C2401   1.568       .  S
C1979      N1997   1.369       .  A
C1979      C2016   1.452       .  S
C1979      C2292   1.527       .  S
N1980      N1997   1.338       .  A
N1980      N2002   1.316       .  A
N1980     Co3005   2.171       .  S
C1981      N2006   1.329       .  A
C1981      C2019   1.455       .  S
H1982      C2023   1.081       .  S
C1983      N2007   1.360       .  A
C1983      C1987   1.487       .  S
C1983      H2012   1.080       .  S
Co1984     N2002   2.033       .  S
Co1984     N2486   2.096       .  S
Co1984     N3012   2.195       .  S
Co1984     N3482   2.048       .  S
N1985      C2023   1.352       .  A
N1985     Co1986   2.129       .  S
Co1986     N1989   2.071       .  S
Co1986     N2981   2.168       .  S
Co1986    Cl3510   2.494   1_554  S
C1987      N2519   1.353       .  A
C1987      C2811   1.530       .  S
N1988      N1995   1.325       .  A
N1988      N2018   1.314       .  A
N1988     Co3009   2.044       .  S
N1989      N2501   1.322   1_554  A
N1989      N2025   1.330       .  A
N1990      C2019   1.341       .  A
N1990      N2000   1.313       .  A
H1991      C2016   1.079       .  S
N1992      N2013   1.326       .  A
N1992     Co2478   2.096       .  S
N1993      N2505   1.315   1_554  A
N1993      N1998   1.339       .  A
N1993     Co2974   2.168       .  S
C1994      N1998   1.374       .  A
C1994      C2516   1.449   1_554  S
C1994      C2275   1.523       .  S
N1995      C2010   1.327       .  A
C1996      N2024   1.366       .  A
C1996      C1999   1.496       .  S
C1996      H2030   1.074   1_545  S
C1999      N2020   1.343       .  A
C1999      C2303   1.532       .  S
N2000      N2006   1.324       .  A
N2000     Co3466   2.048   1_545  S
N2001      C2027   1.348       .  A
N2001      N2003   1.318   1_455  A
N2002      C2016   1.333       .  A
N2003      N2031   1.330       .  A
N2003     Co2021   2.097       .  S
H2004      C2027   1.081       .  S
H2005      C2022   1.077       .  S
N2007      N2483   1.322       .  A
N2007     Co3009   2.172       .  S
N2008      N2020   1.322       .  A
N2008      N2024   1.320       .  A
N2008     Co2017   2.042       .  S
C2009      N2013   1.347       .  A
C2009      C2334   1.507       .  S
C2010      C2029   1.453       .  S
C2010      H2014   1.078       .  S
N2011      C2022   1.325       .  A
N2011      N2487   1.315       .  A
N2011     Co2021   2.038       .  S
C2015      N2031   1.352       .  A
C2015      C2027   1.465   1_655  S
C2015      C2348   1.503       .  S
Co2017     N2968   2.171   1_545  S
N2018      C2029   1.338       .  A
C2019      C2404   1.443       .  S
Co2021     N2976   2.044       .  S
Co2021     N2995   2.172       .  S
Co2021    Cl2028   2.427       .  S
C2022      C2488   1.449       .  S
N2024     Co2972   2.195   1_545  S
N2025      C2481   1.353       .  A
Cl2028    Co3468   2.494       .  S
C2029      C2415   1.441       .  S
C2032      N2050   1.360       .  A
C2032      C2069   1.473       .  S
C2032      C2264   1.535       .  S
N2033      N2544   1.333       .  A
N2033      N2055   1.319       .  A
N2033     Co2070   2.108       .  S
C2034      N2059   1.336       .  A
C2034      C2072   1.452       .  S
C2034      H2079   1.081       .  S
H2035      C2076   1.079       .  S
C2036      N2554   1.324       .  A
C2036      C2040   1.458       .  S
C2036      H2065   1.082       .  S
Co2037     N2055   2.115       .  S
Co2037     N2539   2.044       .  S
Co2037     N2077   2.027       .  S
Co2037     N2053   2.153       .  S
Co2037    Cl2081   2.439       .  S
N2038      C2076   1.354       .  A
N2038      N2045   1.312       .  A
N2038     Co2533   2.118   1_554  S
Co2039     N2532   2.118       .  S
Co2039     N2536   2.008       .  S
Co2039     N2059   2.043       .  S
Co2039     N2046   2.089       .  S
Co2039    Cl2081   2.443       .  S
C2040      N2078   1.333       .  A
C2040      C2387   1.436       .  S
N2041      N2048   1.314       .  A
N2041      N2071   1.332       .  A
N2041     Co2074   2.115       .  S
N2042      N2554   1.315       .  A
N2042      N2078   1.308       .  A
N2042     Co2533   2.008   1_554  S
N2043      C2072   1.370       .  A
N2043      N2053   1.337       .  A
H2044      C2069   1.069       .  S
N2045      N2066   1.311       .  A
N2045     Co2531   2.044   1_554  S
N2046      N2064   1.320       .  A
N2046      N2051   1.330       .  A
C2047      N2051   1.354       .  A
C2047      C2075   1.450       .  S
C2047      C2247   1.494       .  S
N2048      C2063   1.337       .  A
N2048     Co2070   2.070       .  S
C2049      N2077   1.321       .  A
C2049      C2052   1.459       .  S
C2049      H2083   1.079       .  S
N2050      N2527   1.333       .  A
C2052      N2073   1.349       .  A
C2052      C2432   1.467       .  S
N2053      N2059   1.313       .  A
N2054      C2080   1.357       .  A
N2054      N2056   1.315       .  A
N2054     Co2070   2.136       .  S
N2055      C2563   1.344       .  A
N2056      N2084   1.323       .  A
N2056     Co2074   2.067       .  S
H2057      C2080   1.080       .  S
H2058      C2075   1.078       .  S
N2060      C2530   1.324       .  A
N2060      N2536   1.315       .  A
N2060     Co2074   2.039       .  S
N2061      N2073   1.316       .  A
N2061      N2077   1.316       .  A
N2061     Co2070   2.050       .  S
C2062      N2066   1.341       .  A
C2062      C2076   1.486       .  S
C2062      C2222   1.509       .  S
C2063      C2576   1.460       .  S
C2063      H2067   1.079       .  S
N2064      C2075   1.338       .  A
N2064     Co2074   2.092       .  S
C2068      N2084   1.343       .  A
C2068      C2080   1.480       .  S
C2068      C2236   1.503       .  S
C2069      N2549   1.344       .  A
Co2070    Cl2081   2.449       .  S
N2071      C2576   1.362       .  A
C2072      C2289   1.509       .  S
Co2074    Cl2081   2.431       .  S
C2082      N2565   1.362       .  A
C2082      C2557   1.460       .  S
C2082      C2278   1.498       .  S
C2085      N2103   1.347       .  A
C2085      C2122   1.481       .  S
C2085      C2250   1.515       .  S
N2086      N2103   1.319       .  A
N2086      N2108   1.322       .  A
N2086     Co2123   2.077       .  S
C2087      N2112   1.340       .  A
C2087      H2132   1.081       .  S
H2088      C2129   1.082       .  S
C2089      N2113   1.335       .  A
C2089      C2093   1.446       .  S
C2089      H2118   1.080       .  S
Co2090     N2108   2.114       .  S
Co2090     N2098   2.131       .  S
Co2090     N2130   2.102       .  S
Co2090     N2106   2.119       .  S
N2091      C2129   1.348       .  A
N2091      N2098   1.320       .  A
Co2092     N2095   2.056       .  S
Co2092     N2112   2.086       .  S
Co2092     N2099   2.073       .  S
Co2092    Cl2134   2.448   1_655  S
C2093      N2131   1.354       .  A
C2093      C2460   1.458       .  S
N2094      N2101   1.315   1_655  A
N2094      N2124   1.330       .  A
N2094     Co2127   2.110       .  S
N2095      N2113   1.314       .  A
N2095      N2131   1.318       .  A
N2096      C2125   1.360       .  A
N2096      N2106   1.333       .  A
H2097      C2122   1.077       .  S
N2098      N2119   1.337       .  A
N2099      N2117   1.321       .  A
N2099      N2104   1.323       .  A
C2100      N2104   1.344       .  A
C2100      C2128   1.475       .  S
C2100      C2261   1.508       .  S
C2102      N2130   1.345       .  A
C2102      C2105   1.477       .  S
C2102      H2136   1.080       .  S
C2105      N2126   1.331       .  A
C2105      C2376   1.472       .  S
N2107      C2133   1.345       .  A
N2107      N2109   1.311       .  A
N2108      C2122   1.348       .  A
N2109      N2137   1.327       .  A
N2109     Co2127   2.077       .  S
H2110      C2133   1.075       .  S
H2111      C2128   1.082       .  S
N2113     Co2127   2.051       .  S
N2114      N2126   1.312       .  A
N2114      N2130   1.319       .  A
N2114     Co2123   2.017       .  S
C2115      N2119   1.365       .  A
C2115      C2129   1.468       .  S
C2115      C2205   1.528       .  S
C2116      H2120   1.080       .  S
N2117      C2128   1.354       .  A
N2117     Co2127   2.124       .  S
C2121      N2137   1.360       .  A
C2121      C2133   1.482       .  S
C2121      C2194   1.537       .  S
N2124      C2135   1.354       .  A
C2125      C2331   1.506       .  S
Co2127    Cl2134   2.440   1_655  S
C2135      C2345   1.504       .  S
C2138      N2156   1.374       .  A
C2138      C2175   1.452       .  S
C2138      C2306   1.529       .  S
N2139      N2156   1.345       .  A
N2139      N2161   1.316       .  A
N2139     Co3164   2.167       .  S
C2140      N2165   1.330       .  A
C2140      C2178   1.450       .  S
C2140      H2185   1.081       .  S
H2141      C2182   1.081       .  S
C2142      N2166   1.342       .  A
C2142      C2146   1.464       .  S
C2142      H2171   1.081       .  S
Co2143     N3149   2.045       .  S
Co2143     N3139   2.137   1_545  S
Co2143     N2183   2.180       .  S
Co2143     N2159   2.036       .  S
Co2143    Cl3175   2.441       .  S
N2144      C2182   1.349       .  A
N2144      N2151   1.325       .  A
N2144     Co2145   2.118       .  S
Co2145     N2148   2.070       .  S
Co2145     N3153   2.069       .  S
Co2145     N3140   2.161       .  S
Co2145    Cl2187   2.471       .  S
C2146      N2184   1.352       .  A
C2146      C2219   1.489       .  S
N2147      N2154   1.316       .  A
N2147      N2177   1.309       .  A
N2147     Co2180   2.010       .  S
N2148      N2166   1.315       .  A
N2148      N2184   1.325       .  A
N2149      C2178   1.333       .  A
N2149      N2159   1.315       .  A
H2150      C2175   1.081       .  S
N2151      N2172   1.336       .  A
N2151     Co3131   2.137       .  S
N2152      N2170   1.318       .  A
N2152      N2157   1.339       .  A
N2152     Co3133   2.161       .  S
C2153      N2157   1.370       .  A
C2153      C2181   1.455       .  S
C2153      C2320   1.516       .  S
N2154      C2169   1.327       .  A
N2154     Co3164   2.051       .  S
C2155      N2183   1.365       .  A
C2155      C2158   1.504       .  S
C2155      H2189   1.079       .  S
C2158      N2179   1.337       .  A
C2158      C2233   1.530       .  S
N2159      N2165   1.324       .  A
N2160      C2186   1.348       .  A
N2160      N2162   1.322       .  A
N2160     Co2176   2.122       .  S
N2161      C2175   1.331       .  A
N2161     Co3131   2.045       .  S
N2162      N2190   1.330       .  A
N2162     Co3168   2.089   1_545  S
H2163      C2186   1.079       .  S
H2164      C2181   1.081       .  S
N2165     Co3133   2.069       .  S
N2166     Co2180   2.101       .  S
N2167      N2179   1.314       .  A
N2167      N2183   1.317       .  A
N2167     Co2176   2.033       .  S
C2168      N2172   1.361       .  A
C2168      C2182   1.462       .  S
C2168      C2208   1.519       .  S
C2169      C2188   1.463       .  S
C2169      H2173   1.074       .  S
N2170      C2181   1.339       .  A
N2170     Co3168   2.062   1_545  S
C2174      N2190   1.353       .  A
C2174      C2186   1.464       .  S
C2174      C2191   1.507       .  S
Co2176     N3127   2.167       .  S
Co2176     N3142   2.051   1_545  S
Co2176    Cl3175   2.466       .  S
N2177      C2188   1.329       .  A
C2178      C2359   1.441       .  S
Co2180     N3150   2.089       .  S
Co2180     N3158   2.062       .  S
Co2180    Cl2187   2.434       .  S
Cl2187    Co3131   2.441       .  S
Cl2187    Co3164   2.466       .  S
C2188      C2443   1.430       .  S
C2191      C2192   1.411       .  A
C2191      C2196   1.409       .  A
C2192      C2193   1.422       .  A
C2192      C2197   1.452       .  S
C2193      C2194   1.432       .  A
C2193      C2200   1.451       .  S
C2194      C2195   1.432       .  A
C2195      C2196   1.424       .  A
C2195      C2198   1.447       .  S
C2196      C2199   1.453       .  S
C2197      N2204   1.157       .  T
C2198      N2203   1.158       .  T
C2199      N2201   1.157       .  T
C2200      N2202   1.158       .  T
C2205      C2206   1.422       .  A
C2205      C2210   1.418       .  A
C2206      C2207   1.427       .  A
C2206      C2211   1.449       .  S
C2207      C2208   1.416       .  A
C2207      C2214   1.450       .  S
C2208      C2209   1.416       .  A
C2209      C2210   1.428       .  A
C2209      C2212   1.450       .  S
C2210      C2213   1.444       .  S
C2211      N2218   1.157       .  T
C2212      N2217   1.157       .  T
C2213      N2215   1.155       .  T
C2214      N2216   1.157       .  T
C2219      C2220   1.406       .  A
C2219      C2224   1.413       .  A
C2220      C2221   1.403       .  A
C2220      C2225   1.453       .  S
C2221      C2222   1.427       .  A
C2221      C2228   1.453       .  S
C2222      C2223   1.420       .  A
C2223      C2224   1.421       .  A
C2223      C2226   1.446       .  S
C2224      C2227   1.451       .  S
C2225      N2232   1.158       .  T
C2226      N2231   1.157       .  T
C2227      N2229   1.158       .  T
C2228      N2230   1.157       .  T
C2233      C2234   1.440       .  A
C2233      C2238   1.419       .  A
C2234      C2235   1.419       .  A
C2234      C2239   1.452       .  S
C2235      C2236   1.402       .  A
C2235      C2242   1.452       .  S
C2236      C2237   1.413       .  A
C2237      C2238   1.425       .  A
C2237      C2240   1.445       .  S
C2238      C2241   1.448       .  S
C2239      N2246   1.158       .  T
C2240      N2245   1.155       .  T
C2241      N2243   1.158       .  T
C2242      N2244   1.157       .  T
C2247      C2248   1.412       .  A
C2247      C2252   1.415       .  A
C2248      C2249   1.412       .  A
C2248      C2253   1.454       .  S
C2249      C2250   1.425       .  A
C2249      C2256   1.452       .  S
C2250      C2251   1.419       .  A
C2251      C2252   1.420       .  A
C2251      C2254   1.446       .  S
C2252      C2255   1.452       .  S
C2253      N2260   1.158       .  T
C2254      N2259   1.157       .  T
C2255      N2257   1.157       .  T
C2256      N2258   1.157       .  T
C2261      C2262   1.414       .  A
C2261      C2266   1.411       .  A
C2262      C2263   1.426       .  A
C2262      C2267   1.452       .  S
C2263      C2264   1.429       .  A
C2263      C2270   1.448       .  S
C2264      C2265   1.428       .  A
C2265      C2266   1.419       .  A
C2265      C2268   1.447       .  S
C2266      C2269   1.454       .  S
C2267      N2274   1.158       .  T
C2268      N2273   1.157       .  T
C2269      N2271   1.157       .  T
C2270      N2272   1.157       .  T
C2275      C2770   1.434       .  A
C2275      C2280   1.414       .  A
C2276      C2769   1.434       .  A
C2276      C2277   1.414       .  A
C2276      C2281   1.453       .  S
C2277      C2772   1.405       .  A
C2277      C2284   1.453       .  S
C2278      C2771   1.405       .  A
C2278      C2279   1.414       .  A
C2279      C2280   1.424       .  A
C2279      C2282   1.448       .  S
C2280      C2283   1.443       .  S
C2281      N2288   1.158       .  T
C2282      N2287   1.157       .  T
C2283      N2285   1.156       .  T
C2284      N2286   1.157       .  T
C2289      C2290   1.418       .  A
C2289      C2294   1.409       .  A
C2290      C2291   1.425       .  A
C2290      C2295   1.447       .  S
C2291      C2292   1.414       .  A
C2291      C2298   1.449       .  S
C2292      C2293   1.433       .  A
C2293      C2294   1.421       .  A
C2293      C2296   1.449       .  S
C2294      C2297   1.454       .  S
C2295      N2302   1.156       .  T
C2296      N2301   1.157       .  T
C2297      N2299   1.158       .  T
C2298      N2300   1.157       .  T
C2303      C2304   1.425   1_545  A
C2303      C2308   1.422       .  A
C2304      C3293   1.416       .  A
C2304      C2309   1.450       .  S
C2305      C3292   1.416       .  A
C2305      C2306   1.416       .  A
C2305      C2312   1.455       .  S
C2306      C3295   1.421       .  A
C2307      C3294   1.421   1_545  A
C2307      C2308   1.439       .  A
C2307      C2310   1.447       .  S
C2308      C2311   1.447       .  S
C2309      N2316   1.157       .  T
C2310      N2315   1.157       .  T
C2311      N2313   1.157       .  T
C2312      N2314   1.157       .  T
C2317      C2481   1.530       .  S
C2317      C3306   1.418       .  A
C2317      C2322   1.419       .  A
C2318      C3305   1.418       .  A
C2318      C2319   1.425       .  A
C2318      C2323   1.436       .  S
C2319      C2320   1.410       .  A
C2319      C2326   1.448       .  S
C2320      C3309   1.411   1_545  A
C2321      C3308   1.411       .  A
C2321      C2322   1.427       .  A
C2321      C2324   1.443       .  S
C2322      C2325   1.447       .  S
C2323      N2330   1.154   1_554  T
C2324      N2329   1.156       .  T
C2325      N2327   1.157       .  T
C2326      N2328   1.157       .  T
C2331      C2336   1.414       .  A
C2332      C2333   1.418       .  A
C2332      C2337   1.445       .  S
C2333      C2340   1.450       .  S
C2334      C2335   1.422       .  A
C2335      C2336   1.422       .  A
C2335      C2338   1.450       .  S
C2336      C2339   1.450       .  S
C2337      N2344   1.155       .  T
C2338      N2343   1.157       .  T
C2339      N2341   1.158       .  T
C2340      N2342   1.157       .  T
C2345      C2346   1.415       .  A
C2345      C2350   1.411   1_655  A
C2346      C2347   1.421       .  A
C2346      C2351   1.449       .  S
C2347      C2348   1.416       .  A
C2347      C2354   1.450       .  S
C2348      C2349   1.415   1_655  A
C2349      C2350   1.419       .  A
C2351      N2358   1.157       .  T
C2352      N2357   1.157       .  T
C2353      N2355   1.156       .  T
C2354      N2356   1.157       .  T
C2359      C2360   1.386       .  A
C2359      C2364   1.393       .  A
C2360      C2361   1.400       .  A
C2360      C2365   1.460       .  S
C2361      C2362   1.457       .  A
C2361      C2368   1.452       .  S
C2362      C2363   1.420       .  A
C2363      C2364   1.398       .  A
C2363      C2366   1.432       .  S
C2364      C2367   1.453       .  S
C2365      N2372   1.157       .  T
C2366      N2371   1.152       .  T
C2367      N2369   1.157       .  T
C2368      N2370   1.157       .  T
C2373      C2374   1.466       .  A
C2373      C2378   1.431       .  A
C2374      C2375   1.401       .  A
C2374      C2379   1.454       .  S
C2375      C2376   1.375       .  A
C2375      C2382   1.452       .  S
C2376      C2377   1.404       .  A
C2377      C2378   1.408       .  A
C2377      C2380   1.446       .  S
C2378      C2381   1.451       .  S
C2379      N2386   1.158       .  T
C2380      N2385   1.155       .  T
C2381      N2383   1.157       .  T
C2382      N2384   1.157       .  T
C2387      C2388   1.409       .  A
C2387      C2392   1.384       .  A
C2388      C2389   1.379       .  A
C2388      C2887   1.450       .  S
C2389      C2390   1.425       .  A
C2389      C2396   1.454       .  S
C2390      C2391   1.448       .  A
C2391      C2392   1.389       .  A
C2391      C2394   1.452       .  S
C2392      C2395   1.454       .  S
C2393      C2882   1.450       .  S
C2393      N2400   1.154       .  T
C2394      N2399   1.156       .  T
C2395      N2397   1.157       .  T
C2396      N2398   1.158       .  T
C2401      C2402   1.429       .  A
C2401      C2406   1.427       .  A
C2402      C2403   1.396       .  A
C2402      C2407   1.449       .  S
C2403      C2404   1.407       .  A
C2403      C2410   1.453       .  S
C2404      C2405   1.391       .  A
C2405      C2406   1.395       .  A
C2405      C2408   1.451       .  S
C2406      C2409   1.445       .  S
C2407      N2414   1.157       .  T
C2408      N2413   1.157       .  T
C2409      N2411   1.158       .  T
C2415      C2416   1.412       .  A
C2415      C2420   1.391       .  A
C2416      C2417   1.409       .  A
C2416      C2421   1.452       .  S
C2417      C2418   1.413       .  A
C2417      C2424   1.444       .  S
C2418      C2419   1.428       .  A
C2419      C2420   1.387       .  A
C2419      C2422   1.444       .  S
C2420      C2423   1.451       .  S
C2422      N2427   1.157       .  T
C2423      N2425   1.157       .  T
C2424      N2426   1.156       .  T
C2429      C2430   1.409       .  A
C2429      C2434   1.417       .  A
C2430      C2431   1.395       .  A
C2430      C2435   1.447       .  S
C2431      C2432   1.404       .  A
C2431      C2438   1.449       .  S
C2432      C2433   1.406       .  A
C2433      C2434   1.399       .  A
C2433      C2436   1.451       .  S
C2434      C2437   1.448       .  S
C2435      N2442   1.158       .  T
C2436      N2441   1.157       .  T
C2437      N2439   1.158       .  T
C2438      N2440   1.157       .  T
C2443      C2444   1.406       .  A
C2443      C2448   1.396       .  A
C2444      C2445   1.391       .  A
C2444      C2449   1.455       .  S
C2445      C2446   1.423       .  A
C2445      C2452   1.448       .  S
C2446      C2447   1.423       .  A
C2447      C2448   1.394       .  A
C2447      C2450   1.448       .  S
C2448      C2451   1.450       .  S
C2449      N2456   1.157       .  T
C2450      N2455   1.158       .  T
C2451      N2453   1.157       .  T
C2452      N2454   1.157       .  T
C2457      C2458   1.431       .  A
C2457      C2462   1.410       .  A
C2458      C2459   1.417       .  A
C2458      C2463   1.440       .  S
C2459      C2460   1.406       .  A
C2459      C2466   1.452   1_655  S
C2460      C2461   1.413       .  A
C2461      C2462   1.361       .  A
C2461      C2464   1.454       .  S
C2462      C2465   1.451       .  S
C2463      N2470   1.156       .  T
C2464      N2469   1.158       .  T
C2465      N2467   1.158       .  T
C2466      N2468   1.157       .  T
C2471      C2912   1.559       .  S
C2471      C2923   1.556       .  S
C2471      C2940   1.557       .  S
C2471      C2951   1.561       .  S
C2472      C2856   1.599       .  S
C2472      C2867   1.591       .  S
C2472      C2884   1.516       .  S
C2472      C2895   1.568       .  S
C2473      N2491   1.369       .  A
C2473      C2510   1.452       .  S
C2473      C2786   1.527       .  S
N2474      N2491   1.338       .  A
N2474      N2496   1.316       .  A
N2474     Co3499   2.171       .  S
C2475      N2500   1.329       .  A
C2475      C2513   1.455       .  S
H2476      C2517   1.081       .  S
C2477      N2501   1.360       .  A
C2477      C2481   1.487   1_556  S
C2477      H2506   1.080       .  S
Co2478     N2496   2.033   1_554  S
Co2478     N3506   2.195   1_554  S
Co2478     N2988   2.048       .  S
N2479      C2517   1.352       .  A
N2479     Co2480   2.129       .  S
Co2480     N2483   2.071       .  S
Co2480     N3475   2.168       .  S
Co2480    Cl3016   2.494       .  S
N2482      N2489   1.325       .  A
N2482      N2512   1.314       .  A
N2482     Co3503   2.044       .  S
N2483      N2519   1.330       .  A
N2484      C2513   1.341       .  A
N2484      N2494   1.313       .  A
H2485      C2510   1.079       .  S
N2486      N2507   1.326       .  A
N2487      N2492   1.339       .  A
N2487     Co3468   2.168       .  S
C2488      N2492   1.374       .  A
C2488      C2769   1.523       .  S
N2489      C2504   1.327       .  A
C2490      N2518   1.366       .  A
C2490      C2493   1.496       .  S
C2490      H2524   1.074   1_545  S
C2493      N2514   1.343       .  A
C2493      C2797   1.532       .  S
N2494      N2500   1.324       .  A
N2494     Co2972   2.048   1_545  S
N2495      C2521   1.348       .  A
N2495      N2497   1.318   1_455  A
N2496      C2510   1.333       .  A
N2497      N2525   1.330       .  A
N2497     Co2515   2.097       .  S
H2498      C2521   1.081       .  S
H2499      C2516   1.077       .  S
N2501     Co3503   2.172       .  S
N2502      N2514   1.322       .  A
N2502      N2518   1.320       .  A
N2502     Co2511   2.042       .  S
C2503      N2507   1.347       .  A
C2503      C2828   1.507       .  S
C2504      C2523   1.453       .  S
C2504      H2508   1.078       .  S
N2505      C2516   1.325       .  A
N2505     Co2515   2.038       .  S
C2509      N2525   1.352       .  A
C2509      C2521   1.465   1_655  S
C2509      C2842   1.503       .  S
Co2511     N3462   2.171   1_545  S
N2512      C2523   1.338       .  A
C2513      C2898   1.443       .  S
Co2515     N3470   2.044       .  S
Co2515     N3489   2.172       .  S
Co2515    Cl2522   2.427       .  S
N2518     Co3466   2.195   1_546  S
Cl2522    Co2974   2.494   1_556  S
C2523      C2909   1.441       .  S
C2526      N2544   1.360       .  A
C2526      C2563   1.473       .  S
C2526      C2758   1.535       .  S
N2527      N2549   1.319       .  A
N2527     Co2564   2.108   1_554  S
C2528      N2553   1.336       .  A
C2528      C2566   1.452       .  S
C2528      H2573   1.081       .  S
H2529      C2570   1.079       .  S
C2530      C2534   1.458       .  S
C2530      H2559   1.082       .  S
Co2531     N2549   2.115   1_556  S
Co2531     N2571   2.027       .  S
Co2531     N2547   2.153       .  S
Co2531    Cl2575   2.439       .  S
N2532      C2570   1.354       .  A
N2532      N2539   1.312       .  A
Co2533     N2553   2.043       .  S
Co2533     N2540   2.089       .  S
Co2533    Cl2575   2.443       .  S
C2534      N2572   1.333       .  A
C2534      C2881   1.436       .  S
N2535      N2542   1.314   1_554  A
N2535      N2565   1.332       .  A
N2535     Co2568   2.115   1_554  S
N2536      N2572   1.308       .  A
N2537      C2566   1.370       .  A
N2537      N2547   1.337       .  A
H2538      C2563   1.069       .  S
N2539      N2560   1.311       .  A
N2540      N2558   1.320       .  A
N2540      N2545   1.330       .  A
C2541      N2545   1.354       .  A
C2541      C2569   1.450       .  S
C2541      C2741   1.494       .  S
N2542      C2557   1.337   1_556  A
N2542     Co2564   2.070       .  S
C2543      N2571   1.321       .  A
C2543      C2546   1.459       .  S
C2543      H2577   1.079       .  S
C2546      N2567   1.349       .  A
C2546      C2926   1.467       .  S
N2547      N2553   1.313       .  A
N2548      C2574   1.357       .  A
N2548      N2550   1.315       .  A
N2548     Co2564   2.136       .  S
N2550      N2578   1.323       .  A
N2550     Co2568   2.067       .  S
H2551      C2574   1.080       .  S
H2552      C2569   1.078       .  S
N2554     Co2568   2.039   1_554  S
N2555      N2567   1.316       .  A
N2555      N2571   1.316       .  A
N2555     Co2564   2.050       .  S
C2556      N2560   1.341       .  A
C2556      C2570   1.486       .  S
C2556      C2716   1.509       .  S
C2557      H2561   1.079       .  S
N2558      C2569   1.338       .  A
N2558     Co2568   2.092       .  S
C2562      N2578   1.343       .  A
C2562      C2574   1.480       .  S
C2562      C2730   1.503       .  S
Co2564    Cl2575   2.449       .  S
C2566      C2783   1.509       .  S
Co2568    Cl2575   2.431       .  S
C2576      C2772   1.497       .  S
C2579      N2597   1.347       .  A
C2579      C2616   1.481       .  S
C2579      C2744   1.515       .  S
N2580      N2597   1.319       .  A
N2580      N2602   1.322       .  A
N2580     Co2617   2.077       .  S
C2581      N2606   1.340       .  A
C2581      H2626   1.081       .  S
H2582      C2623   1.082       .  S
C2583      N2607   1.335       .  A
C2583      C2587   1.446       .  S
C2583      H2612   1.080       .  S
Co2584     N2602   2.115       .  S
Co2584     N2592   2.131       .  S
Co2584     N2624   2.102       .  S
Co2584     N2600   2.119       .  S
N2585      C2623   1.348       .  A
N2585      N2592   1.320       .  A
Co2586     N2589   2.056       .  S
Co2586     N2606   2.086       .  S
Co2586     N2593   2.073       .  S
Co2586    Cl2628   2.449   1_655  S
C2587      N2625   1.354       .  A
C2587      C2954   1.458       .  S
N2588      N2595   1.315   1_655  A
N2588      N2618   1.330       .  A
N2588     Co2621   2.110       .  S
N2589      N2607   1.314       .  A
N2589      N2625   1.318       .  A
N2590      C2619   1.360       .  A
N2590      N2600   1.333       .  A
H2591      C2616   1.077       .  S
N2592      N2613   1.337       .  A
N2593      N2611   1.321       .  A
N2593      N2598   1.323       .  A
C2594      N2598   1.344       .  A
C2594      C2622   1.475       .  S
C2594      C2755   1.508       .  S
C2596      N2624   1.345       .  A
C2596      C2599   1.477       .  S
C2596      H2630   1.080       .  S
C2599      N2620   1.331       .  A
C2599      C2870   1.472       .  S
N2601      C2627   1.345       .  A
N2601      N2603   1.311       .  A
N2602      C2616   1.348       .  A
N2603      N2631   1.327       .  A
N2603     Co2621   2.077       .  S
H2604      C2627   1.075       .  S
H2605      C2622   1.082       .  S
N2607     Co2621   2.051       .  S
N2608      N2620   1.312       .  A
N2608      N2624   1.319       .  A
N2608     Co2617   2.017       .  S
C2609      N2613   1.365       .  A
C2609      C2623   1.468       .  S
C2609      C2699   1.528       .  S
C2610      H2614   1.080       .  S
N2611      C2622   1.354       .  A
N2611     Co2621   2.124       .  S
C2615      N2631   1.360       .  A
C2615      C2627   1.482       .  S
C2615      C2688   1.537       .  S
N2618      C2629   1.354       .  A
C2619      C2825   1.506       .  S
Co2621    Cl2628   2.440   1_655  S
C2629      C2839   1.504       .  S
C2632      N2650   1.374       .  A
C2632      C2669   1.452       .  S
C2632      C2800   1.529       .  S
N2633      N2650   1.345       .  A
N2633      N2655   1.316       .  A
N2633     Co3658   2.167       .  S
C2634      N2659   1.330       .  A
C2634      C2672   1.450       .  S
C2634      H2679   1.081       .  S
H2635      C2676   1.081       .  S
C2636      N2660   1.342       .  A
C2636      C2640   1.464       .  S
C2636      H2665   1.081       .  S
Co2637     N3643   2.045       .  S
Co2637     N3633   2.137   1_545  S
Co2637     N2677   2.180       .  S
Co2637     N2653   2.036       .  S
Co2637    Cl3669   2.441       .  S
N2638      C2676   1.349       .  A
N2638      N2645   1.325       .  A
N2638     Co2639   2.118       .  S
Co2639     N2642   2.070       .  S
Co2639     N3647   2.069       .  S
Co2639     N3634   2.161       .  S
Co2639    Cl2681   2.471       .  S
C2640      N2678   1.352       .  A
C2640      C2713   1.489       .  S
N2641      N2648   1.316       .  A
N2641      N2671   1.309       .  A
N2641     Co2674   2.010       .  S
N2642      N2660   1.315       .  A
N2642      N2678   1.325       .  A
N2643      C2672   1.333       .  A
N2643      N2653   1.315       .  A
H2644      C2669   1.081       .  S
N2645      N2666   1.336       .  A
N2645     Co3625   2.137       .  S
N2646      N2664   1.318       .  A
N2646      N2651   1.339       .  A
N2646     Co3627   2.161       .  S
C2647      N2651   1.370       .  A
C2647      C2675   1.455       .  S
C2647      C2814   1.516       .  S
N2648      C2663   1.327       .  A
N2648     Co3658   2.050       .  S
C2649      N2677   1.365       .  A
C2649      C2652   1.504       .  S
C2649      H2683   1.079       .  S
C2652      N2673   1.337       .  A
C2652      C2727   1.530       .  S
N2653      N2659   1.324       .  A
N2654      C2680   1.348       .  A
N2654      N2656   1.322       .  A
N2654     Co2670   2.122       .  S
N2655      C2669   1.331       .  A
N2655     Co3625   2.045       .  S
N2656      N2684   1.330       .  A
N2656     Co3662   2.089   1_545  S
H2657      C2680   1.079       .  S
H2658      C2675   1.081       .  S
N2659     Co3627   2.069       .  S
N2660     Co2674   2.101       .  S
N2661      N2673   1.314       .  A
N2661      N2677   1.317       .  A
N2661     Co2670   2.033       .  S
C2662      N2666   1.361       .  A
C2662      C2676   1.462       .  S
C2662      C2702   1.519       .  S
C2663      C2682   1.463       .  S
C2663      H2667   1.074       .  S
N2664      C2675   1.339       .  A
N2664     Co3662   2.062   1_545  S
C2668      N2684   1.353       .  A
C2668      C2680   1.464       .  S
C2668      C2685   1.507       .  S
Co2670     N3621   2.167       .  S
Co2670     N3636   2.050   1_545  S
Co2670    Cl3669   2.466       .  S
N2671      C2682   1.329       .  A
C2672      C2853   1.441       .  S
Co2674     N3644   2.089       .  S
Co2674     N3652   2.062       .  S
Co2674    Cl2681   2.434       .  S
Cl2681    Co3625   2.441       .  S
Cl2681    Co3658   2.466       .  S
C2682      C2937   1.430       .  S
C2685      C2686   1.411       .  A
C2685      C2690   1.409       .  A
C2686      C2687   1.422       .  A
C2686      C2691   1.452       .  S
C2687      C2688   1.432       .  A
C2687      C2694   1.451       .  S
C2688      C2689   1.432       .  A
C2689      C2690   1.424       .  A
C2689      C2692   1.447       .  S
C2690      C2693   1.453       .  S
C2691      N2698   1.157       .  T
C2692      N2697   1.158       .  T
C2693      N2695   1.157       .  T
C2694      N2696   1.158       .  T
C2699      C2700   1.422       .  A
C2699      C2704   1.418       .  A
C2700      C2701   1.427       .  A
C2700      C2705   1.449       .  S
C2701      C2702   1.416       .  A
C2701      C2708   1.450       .  S
C2702      C2703   1.416       .  A
C2703      C2704   1.428       .  A
C2703      C2706   1.450       .  S
C2704      C2707   1.444       .  S
C2705      N2712   1.157       .  T
C2706      N2711   1.157       .  T
C2707      N2709   1.155       .  T
C2708      N2710   1.157       .  T
C2713      C2714   1.406       .  A
C2713      C2718   1.413       .  A
C2714      C2715   1.403       .  A
C2714      C2719   1.453       .  S
C2715      C2716   1.427       .  A
C2715      C2722   1.453       .  S
C2716      C2717   1.420       .  A
C2717      C2718   1.421       .  A
C2717      C2720   1.446       .  S
C2718      C2721   1.451       .  S
C2719      N2726   1.158       .  T
C2720      N2725   1.157       .  T
C2721      N2723   1.158       .  T
C2722      N2724   1.157       .  T
C2727      C2728   1.440       .  A
C2727      C2732   1.419       .  A
C2728      C2729   1.419       .  A
C2728      C2733   1.452       .  S
C2729      C2730   1.402       .  A
C2729      C2736   1.452       .  S
C2730      C2731   1.413       .  A
C2731      C2732   1.425       .  A
C2731      C2734   1.445       .  S
C2732      C2735   1.448       .  S
C2733      N2740   1.158       .  T
C2734      N2739   1.155       .  T
C2735      N2737   1.158       .  T
C2736      N2738   1.157       .  T
C2741      C2742   1.412       .  A
C2741      C2746   1.415       .  A
C2742      C2743   1.412       .  A
C2742      C2747   1.454       .  S
C2743      C2744   1.425       .  A
C2743      C2750   1.452       .  S
C2744      C2745   1.419       .  A
C2745      C2746   1.420       .  A
C2745      C2748   1.446       .  S
C2746      C2749   1.452       .  S
C2747      N2754   1.158       .  T
C2748      N2753   1.157       .  T
C2749      N2751   1.157       .  T
C2750      N2752   1.157       .  T
C2755      C2756   1.414       .  A
C2755      C2760   1.411       .  A
C2756      C2757   1.426       .  A
C2756      C2761   1.452       .  S
C2757      C2758   1.429       .  A
C2757      C2764   1.448       .  S
C2758      C2759   1.428       .  A
C2759      C2760   1.419       .  A
C2759      C2762   1.447       .  S
C2760      C2763   1.454       .  S
C2761      N2768   1.158       .  T
C2762      N2767   1.157       .  T
C2763      N2765   1.157       .  T
C2764      N2766   1.157       .  T
C2769      C2774   1.414       .  A
C2770      C2771   1.414       .  A
C2770      C2775   1.453   1_554  S
C2771      C2778   1.453   1_554  S
C2772      C2773   1.414       .  A
C2773      C2774   1.424       .  A
C2773      C2776   1.448       .  S
C2774      C2777   1.443       .  S
C2775      N2782   1.158       .  T
C2776      N2781   1.157       .  T
C2777      N2779   1.156       .  T
C2778      N2780   1.157       .  T
C2783      C2784   1.418       .  A
C2783      C2788   1.409       .  A
C2784      C2785   1.425       .  A
C2784      C2789   1.447       .  S
C2785      C2786   1.414       .  A
C2785      C2792   1.449       .  S
C2786      C2787   1.433       .  A
C2787      C2788   1.421       .  A
C2787      C2790   1.449       .  S
C2788      C2791   1.454       .  S
C2789      N2796   1.156       .  T
C2790      N2795   1.157   1_556  T
C2791      N2793   1.158   1_556  T
C2792      N2794   1.157       .  T
C2797      C2798   1.425   1_545  A
C2797      C2802   1.422       .  A
C2798      C3787   1.416       .  A
C2798      C2803   1.450       .  S
C2799      C3786   1.416       .  A
C2799      C2800   1.416       .  A
C2799      C2806   1.455       .  S
C2800      C3789   1.421       .  A
C2801      C3788   1.421   1_545  A
C2801      C2802   1.439       .  A
C2801      C2804   1.447       .  S
C2802      C2805   1.447       .  S
C2803      N2810   1.157       .  T
C2804      N2809   1.157       .  T
C2805      N2807   1.157       .  T
C2806      N2808   1.157       .  T
C2811      C3800   1.418       .  A
C2811      C2816   1.419       .  A
C2812      C3799   1.418       .  A
C2812      C2813   1.425       .  A
C2812      C2817   1.436       .  S
C2813      C2814   1.410       .  A
C2813      C2820   1.448       .  S
C2814      C3803   1.411   1_545  A
C2815      C3802   1.411       .  A
C2815      C2816   1.427       .  A
C2815      C2818   1.443       .  S
C2816      C2819   1.447       .  S
C2817      N2824   1.154       .  T
C2818      N2823   1.156       .  T
C2819      N2821   1.157       .  T
C2820      N2822   1.157       .  T
C2825      C2830   1.414       .  A
C2826      C2827   1.418       .  A
C2826      C2831   1.445       .  S
C2827      C2834   1.450       .  S
C2828      C2829   1.422       .  A
C2829      C2830   1.422       .  A
C2829      C2832   1.450       .  S
C2830      C2833   1.450       .  S
C2831      N2838   1.155       .  T
C2832      N2837   1.157       .  T
C2833      N2835   1.158       .  T
C2834      N2836   1.157       .  T
C2839      C2840   1.415       .  A
C2839      C2844   1.411   1_655  A
C2840      C2841   1.421       .  A
C2840      C2845   1.449       .  S
C2841      C2842   1.416       .  A
C2841      C2848   1.450       .  S
C2842      C2843   1.415   1_655  A
C2843      C2844   1.419       .  A
C2845      N2852   1.157       .  T
C2846      N2851   1.157       .  T
C2847      N2849   1.156       .  T
C2848      N2850   1.157       .  T
C2853      C2854   1.386       .  A
C2853      C2858   1.393       .  A
C2854      C2855   1.400       .  A
C2854      C2859   1.460       .  S
C2855      C2856   1.457       .  A
C2855      C2862   1.452       .  S
C2856      C2857   1.420       .  A
C2857      C2858   1.398       .  A
C2857      C2860   1.432       .  S
C2858      C2861   1.453       .  S
C2859      N2866   1.157       .  T
C2860      N2865   1.152       .  T
C2861      N2863   1.157       .  T
C2862      N2864   1.157       .  T
C2867      C2868   1.466       .  A
C2867      C2872   1.431       .  A
C2868      C2869   1.401       .  A
C2868      C2873   1.454       .  S
C2869      C2870   1.375       .  A
C2869      C2876   1.452       .  S
C2870      C2871   1.404       .  A
C2871      C2872   1.408       .  A
C2871      C2874   1.446       .  S
C2872      C2875   1.451       .  S
C2873      N2880   1.158       .  T
C2874      N2879   1.155       .  T
C2875      N2877   1.157       .  T
C2876      N2878   1.157       .  T
C2881      C2882   1.409       .  A
C2881      C2886   1.384       .  A
C2882      C2883   1.379       .  A
C2883      C2884   1.425       .  A
C2883      C2890   1.454       .  S
C2884      C2885   1.448       .  A
C2885      C2886   1.389       .  A
C2885      C2888   1.452       .  S
C2886      C2889   1.454       .  S
C2887      N2894   1.154   1_554  T
C2888      N2893   1.156       .  T
C2889      N2891   1.157       .  T
C2890      N2892   1.158       .  T
C2895      C2896   1.429       .  A
C2895      C2900   1.427       .  A
C2896      C2897   1.396       .  A
C2896      C2901   1.449       .  S
C2897      C2898   1.407       .  A
C2897      C2904   1.453       .  S
C2898      C2899   1.391       .  A
C2899      C2900   1.395       .  A
C2899      C2902   1.451       .  S
C2900      C2903   1.445       .  S
C2901      N2908   1.157       .  T
C2902      N2907   1.157       .  T
C2903      N2905   1.158       .  T
C2909      C2910   1.412       .  A
C2909      C2914   1.391       .  A
C2910      C2911   1.409       .  A
C2910      C2915   1.452       .  S
C2911      C2912   1.413       .  A
C2911      C2918   1.444       .  S
C2912      C2913   1.428       .  A
C2913      C2914   1.387       .  A
C2913      C2916   1.444       .  S
C2914      C2917   1.451       .  S
C2916      N2921   1.157       .  T
C2917      N2919   1.157       .  T
C2918      N2920   1.156       .  T
C2923      C2924   1.409       .  A
C2923      C2928   1.417       .  A
C2924      C2925   1.395       .  A
C2924      C2929   1.447       .  S
C2925      C2926   1.404       .  A
C2925      C2932   1.449       .  S
C2926      C2927   1.406       .  A
C2927      C2928   1.399       .  A
C2927      C2930   1.451       .  S
C2928      C2931   1.448       .  S
C2929      N2936   1.158       .  T
C2930      N2935   1.157       .  T
C2931      N2933   1.158       .  T
C2932      N2934   1.157       .  T
C2937      C2938   1.406       .  A
C2937      C2942   1.396       .  A
C2938      C2939   1.391       .  A
C2938      C2943   1.455       .  S
C2939      C2940   1.423       .  A
C2939      C2946   1.448       .  S
C2940      C2941   1.423       .  A
C2941      C2942   1.394       .  A
C2941      C2944   1.448       .  S
C2942      C2945   1.450       .  S
C2943      N2950   1.157       .  T
C2944      N2949   1.158       .  T
C2945      N2947   1.157       .  T
C2946      N2948   1.157       .  T
C2951      C2952   1.431       .  A
C2951      C2956   1.410       .  A
C2952      C2953   1.417       .  A
C2952      C2957   1.440       .  S
C2953      C2954   1.406       .  A
C2953      C2960   1.452   1_655  S
C2954      C2955   1.413       .  A
C2955      C2956   1.361       .  A
C2955      C2958   1.454       .  S
C2956      C2959   1.451       .  S
C2957      N2964   1.155       .  T
C2958      N2963   1.158       .  T
C2959      N2961   1.158       .  T
C2960      N2962   1.157       .  T
C2965      C3406   1.559       .  S
C2965      C3417   1.556       .  S
C2965      C3434   1.557       .  S
C2965      C3445   1.561       .  S
C2966      C3350   1.599       .  S
C2966      C3361   1.591       .  S
C2966      C3378   1.516       .  S
C2966      C3389   1.568       .  S
C2967      N2985   1.369       .  A
C2967      C3004   1.452       .  S
C2967      C3280   1.527       .  S
N2968      N2985   1.338       .  A
N2968      N2990   1.316       .  A
C2969      N2994   1.329       .  A
C2969      C3007   1.455       .  S
H2970      C3011   1.081       .  S
C2971      N2995   1.360       .  A
C2971      C2975   1.487       .  S
C2971      H3000   1.080       .  S
Co2972     N2990   2.033       .  S
Co2972     N3474   2.096       .  S
N2973      C3011   1.352       .  A
N2973     Co2974   2.129   1_565  S
Co2974     N2977   2.071       .  S
C2975      N3507   1.353   1_545  A
C2975      C3799   1.530       .  S
N2976      N2983   1.325   1_545  A
N2976      N3006   1.314   1_545  A
N2977      N3489   1.322   1_554  A
N2977      N3013   1.330   1_545  A
N2978      C3007   1.341       .  A
N2978      N2988   1.313       .  A
H2979      C3004   1.079       .  S
N2980      N3001   1.326       .  A
N2980     Co3466   2.096       .  S
N2981      N3493   1.315   1_554  A
N2981      N2986   1.339       .  A
C2982      N2986   1.374       .  A
C2982      C3504   1.449   1_554  S
C2982      C3263   1.523       .  S
N2983      C2998   1.327       .  A
C2984      N3012   1.366       .  A
C2984      C2987   1.496       .  S
C2984      H3018   1.074       .  S
C2987      N3008   1.343       .  A
C2987      C3291   1.532       .  S
N2988      N2994   1.324       .  A
N2989      C3015   1.348       .  A
N2989      N2991   1.318   1_455  A
N2990      C3004   1.333       .  A
N2991      N3019   1.330       .  A
N2991     Co3009   2.097       .  S
H2992      C3015   1.081       .  S
H2993      C3010   1.077       .  S
N2995      N3471   1.322       .  A
N2996      N3008   1.322       .  A
N2996      N3012   1.320       .  A
N2996     Co3005   2.042       .  S
C2997      N3001   1.347       .  A
C2997      C3322   1.507       .  S
C2998      C3017   1.453       .  S
C2998      H3002   1.078       .  S
N2999      C3010   1.325       .  A
N2999      N3475   1.315       .  A
N2999     Co3009   2.038       .  S
C3003      N3019   1.352       .  A
C3003      C3015   1.465   1_655  S
C3003      C3336   1.503       .  S
N3006      C3017   1.338       .  A
C3007      C3392   1.443       .  S
Co3009    Cl3016   2.427       .  S
C3010      C3476   1.449       .  S
N3013      C3469   1.353   1_565  A
C3017      C3403   1.441       .  S
C3020      N3038   1.360       .  A
C3020      C3057   1.473       .  S
C3020      C3252   1.535       .  S
N3021      N3532   1.333       .  A
N3021      N3043   1.319       .  A
N3021     Co3058   2.108       .  S
C3022      N3047   1.336       .  A
C3022      C3060   1.452       .  S
C3022      H3067   1.081       .  S
H3023      C3064   1.079       .  S
C3024      N3542   1.324       .  A
C3024      C3028   1.458       .  S
C3024      H3053   1.082       .  S
Co3025     N3043   2.115       .  S
Co3025     N3527   2.044       .  S
Co3025     N3065   2.027       .  S
Co3025     N3041   2.153       .  S
Co3025    Cl3069   2.439       .  S
N3026      C3064   1.354       .  A
N3026      N3033   1.312       .  A
N3026     Co3521   2.118   1_554  S
Co3027     N3520   2.118       .  S
Co3027     N3524   2.008       .  S
Co3027     N3047   2.043       .  S
Co3027     N3034   2.089       .  S
Co3027    Cl3069   2.443       .  S
C3028      N3066   1.333       .  A
C3028      C3375   1.436       .  S
N3029      N3036   1.314       .  A
N3029      N3059   1.332       .  A
N3029     Co3062   2.115       .  S
N3030      N3542   1.315       .  A
N3030      N3066   1.308       .  A
N3030     Co3521   2.008   1_554  S
N3031      C3060   1.370       .  A
N3031      N3041   1.337       .  A
H3032      C3057   1.069       .  S
N3033      N3054   1.311       .  A
N3033     Co3519   2.044   1_554  S
N3034      N3052   1.320       .  A
N3034      N3039   1.330       .  A
C3035      N3039   1.354       .  A
C3035      C3063   1.450       .  S
C3035      C3235   1.494       .  S
N3036      C3051   1.337       .  A
N3036     Co3058   2.070       .  S
C3037      N3065   1.321       .  A
C3037      C3040   1.459       .  S
C3037      H3071   1.079       .  S
N3038      N3515   1.333       .  A
C3040      N3061   1.349       .  A
C3040      C3420   1.467       .  S
N3041      N3047   1.313       .  A
N3042      C3068   1.357       .  A
N3042      N3044   1.315       .  A
N3042     Co3058   2.136       .  S
N3043      C3551   1.344       .  A
N3044      N3072   1.323       .  A
N3044     Co3062   2.067       .  S
H3045      C3068   1.080       .  S
H3046      C3063   1.078       .  S
N3048      C3518   1.324       .  A
N3048      N3524   1.315       .  A
N3048     Co3062   2.039       .  S
N3049      N3061   1.316       .  A
N3049      N3065   1.316       .  A
N3049     Co3058   2.050       .  S
C3050      N3054   1.341       .  A
C3050      C3064   1.486       .  S
C3050      C3210   1.509       .  S
C3051      C3564   1.460       .  S
C3051      H3055   1.079       .  S
N3052      C3063   1.338       .  A
N3052     Co3062   2.092       .  S
C3056      N3072   1.343       .  A
C3056      C3068   1.480       .  S
C3056      C3224   1.503       .  S
C3057      N3537   1.344       .  A
Co3058    Cl3069   2.449       .  S
N3059      C3564   1.362       .  A
C3060      C3277   1.509       .  S
Co3062    Cl3069   2.431       .  S
C3070      N3553   1.362       .  A
C3070      C3545   1.460       .  S
C3070      C3266   1.498       .  S
C3073      N3091   1.347       .  A
C3073      C3110   1.481       .  S
C3073      C3238   1.515       .  S
N3074      N3091   1.319       .  A
N3074      N3096   1.322       .  A
N3074     Co3111   2.077       .  S
C3075      N3100   1.340       .  A
C3075      H3120   1.081       .  S
H3076      C3117   1.082       .  S
C3077      N3101   1.335       .  A
C3077      C3081   1.446       .  S
C3077      H3106   1.080       .  S
Co3078     N3096   2.115       .  S
Co3078     N3086   2.131       .  S
Co3078     N3118   2.102       .  S
Co3078     N3094   2.119       .  S
N3079      C3117   1.348       .  A
N3079      N3086   1.320       .  A
Co3080     N3083   2.056       .  S
Co3080     N3100   2.086       .  S
Co3080     N3087   2.073       .  S
Co3080    Cl3122   2.448   1_655  S
C3081      N3119   1.354       .  A
C3081      C3448   1.458       .  S
N3082      N3089   1.315   1_655  A
N3082      N3112   1.330       .  A
N3082     Co3115   2.110       .  S
N3083      N3101   1.314       .  A
N3083      N3119   1.318       .  A
N3084      C3113   1.360       .  A
N3084      N3094   1.333       .  A
H3085      C3110   1.077       .  S
N3086      N3107   1.337       .  A
N3087      N3105   1.321       .  A
N3087      N3092   1.323       .  A
C3088      N3092   1.344       .  A
C3088      C3116   1.475       .  S
C3088      C3249   1.508       .  S
C3090      N3118   1.345       .  A
C3090      C3093   1.477       .  S
C3090      H3124   1.080       .  S
C3093      N3114   1.331       .  A
C3093      C3364   1.472       .  S
N3095      C3121   1.345       .  A
N3095      N3097   1.311       .  A
N3096      C3110   1.348       .  A
N3097      N3125   1.327       .  A
N3097     Co3115   2.077       .  S
H3098      C3121   1.075       .  S
H3099      C3116   1.082       .  S
N3101     Co3115   2.051       .  S
N3102      N3114   1.312       .  A
N3102      N3118   1.319       .  A
N3102     Co3111   2.017       .  S
C3103      N3107   1.365       .  A
C3103      C3117   1.468       .  S
C3103      C3193   1.528       .  S
C3104      H3108   1.080       .  S
N3105      C3116   1.354       .  A
N3105     Co3115   2.124       .  S
C3109      N3125   1.360       .  A
C3109      C3121   1.482       .  S
C3109      C3182   1.537       .  S
N3112      C3123   1.354       .  A
C3113      C3319   1.506       .  S
Co3115    Cl3122   2.440   1_655  S
C3123      C3333   1.504       .  S
C3126      N3144   1.374       .  A
C3126      C3163   1.452   1_565  S
C3126      C3294   1.529       .  S
N3127      N3144   1.345   1_545  A
N3127      N3149   1.316       .  A
C3128      N3153   1.330       .  A
C3128      C3166   1.450       .  S
C3128      H3173   1.081       .  S
H3129      C3170   1.081       .  S
C3130      N3154   1.342       .  A
C3130      C3134   1.464       .  S
C3130      H3159   1.081       .  S
Co3131     N3171   2.180       .  S
Co3131     N3147   2.036       .  S
N3132      C3170   1.349       .  A
N3132      N3139   1.325       .  A
N3132     Co3133   2.118   1_565  S
Co3133     N3136   2.070   1_545  S
Co3133    Cl3175   2.471       .  S
C3134      N3172   1.352       .  A
C3134      C3207   1.489       .  S
N3135      N3142   1.316       .  A
N3135      N3165   1.309       .  A
N3135     Co3168   2.010       .  S
N3136      N3154   1.315       .  A
N3136      N3172   1.325       .  A
N3137      C3166   1.333       .  A
N3137      N3147   1.315       .  A
H3138      C3163   1.081       .  S
N3139      N3160   1.336       .  A
N3140      N3158   1.318       .  A
N3140      N3145   1.339       .  A
C3141      N3145   1.370       .  A
C3141      C3169   1.455       .  S
C3141      C3308   1.516       .  S
N3142      C3157   1.327       .  A
C3143      N3171   1.365       .  A
C3143      C3146   1.504       .  S
C3143      H3177   1.079       .  S
C3146      N3167   1.337       .  A
C3146      C3221   1.530       .  S
N3147      N3153   1.324       .  A
N3148      C3174   1.348       .  A
N3148      N3150   1.322       .  A
N3148     Co3164   2.122       .  S
N3149      C3163   1.331       .  A
N3150      N3178   1.330       .  A
H3151      C3174   1.079       .  S
H3152      C3169   1.081       .  S
N3154     Co3168   2.101       .  S
N3155      N3167   1.314       .  A
N3155      N3171   1.317       .  A
N3155     Co3164   2.033       .  S
C3156      N3160   1.361       .  A
C3156      C3170   1.462       .  S
C3156      C3196   1.519       .  S
C3157      C3176   1.463       .  S
C3157      H3161   1.074       .  S
N3158      C3169   1.339       .  A
C3162      N3178   1.353       .  A
C3162      C3174   1.464       .  S
C3162      C3179   1.507       .  S
N3165      C3176   1.329       .  A
C3166      C3347   1.442       .  S
Co3168    Cl3175   2.434   1_565  S
C3176      C3431   1.430       .  S
C3179      C3180   1.411       .  A
C3179      C3184   1.409       .  A
C3180      C3181   1.422       .  A
C3180      C3185   1.452       .  S
C3181      C3182   1.432       .  A
C3181      C3188   1.451       .  S
C3182      C3183   1.432       .  A
C3183      C3184   1.424       .  A
C3183      C3186   1.447       .  S
C3184      C3187   1.453       .  S
C3185      N3192   1.157       .  T
C3186      N3191   1.158       .  T
C3187      N3189   1.157       .  T
C3188      N3190   1.158       .  T
C3193      C3194   1.422       .  A
C3193      C3198   1.418       .  A
C3194      C3195   1.427       .  A
C3194      C3199   1.449       .  S
C3195      C3196   1.416       .  A
C3195      C3202   1.450       .  S
C3196      C3197   1.416       .  A
C3197      C3198   1.428       .  A
C3197      C3200   1.450       .  S
C3198      C3201   1.444       .  S
C3199      N3206   1.157       .  T
C3200      N3205   1.157       .  T
C3201      N3203   1.155       .  T
C3202      N3204   1.157       .  T
C3207      C3208   1.406       .  A
C3207      C3212   1.413       .  A
C3208      C3209   1.403       .  A
C3208      C3213   1.453       .  S
C3209      C3210   1.427       .  A
C3209      C3216   1.453       .  S
C3210      C3211   1.420       .  A
C3211      C3212   1.421       .  A
C3211      C3214   1.446       .  S
C3212      C3215   1.451       .  S
C3213      N3220   1.158       .  T
C3214      N3219   1.157       .  T
C3215      N3217   1.158       .  T
C3216      N3218   1.157       .  T
C3221      C3222   1.440       .  A
C3221      C3226   1.419       .  A
C3222      C3223   1.419       .  A
C3222      C3227   1.452       .  S
C3223      C3224   1.402       .  A
C3223      C3230   1.452       .  S
C3224      C3225   1.413       .  A
C3225      C3226   1.425       .  A
C3225      C3228   1.445       .  S
C3226      C3229   1.448       .  S
C3227      N3234   1.158       .  T
C3228      N3233   1.155       .  T
C3229      N3231   1.158       .  T
C3230      N3232   1.157       .  T
C3235      C3236   1.412       .  A
C3235      C3240   1.415       .  A
C3236      C3237   1.412       .  A
C3236      C3241   1.454       .  S
C3237      C3238   1.425       .  A
C3237      C3244   1.452       .  S
C3238      C3239   1.419       .  A
C3239      C3240   1.420       .  A
C3239      C3242   1.446       .  S
C3240      C3243   1.452       .  S
C3241      N3248   1.158       .  T
C3242      N3247   1.157       .  T
C3243      N3245   1.157       .  T
C3244      N3246   1.157       .  T
C3249      C3250   1.414       .  A
C3249      C3254   1.411       .  A
C3250      C3251   1.426       .  A
C3250      C3255   1.452       .  S
C3251      C3252   1.429       .  A
C3251      C3258   1.448       .  S
C3252      C3253   1.428       .  A
C3253      C3254   1.419       .  A
C3253      C3256   1.447       .  S
C3254      C3257   1.454       .  S
C3255      N3262   1.158       .  T
C3256      N3261   1.157       .  T
C3257      N3259   1.157       .  T
C3258      N3260   1.157       .  T
C3263      C3758   1.434       .  A
C3263      C3268   1.414       .  A
C3264      C3757   1.434       .  A
C3264      C3265   1.414       .  A
C3264      C3269   1.453       .  S
C3265      C3760   1.405       .  A
C3265      C3272   1.453       .  S
C3266      C3759   1.405       .  A
C3266      C3267   1.414       .  A
C3267      C3268   1.424       .  A
C3267      C3270   1.448       .  S
C3268      C3271   1.443       .  S
C3269      N3276   1.158       .  T
C3270      N3275   1.157       .  T
C3271      N3273   1.156       .  T
C3272      N3274   1.157       .  T
C3277      C3278   1.418       .  A
C3277      C3282   1.409       .  A
C3278      C3279   1.425       .  A
C3278      C3283   1.447       .  S
C3279      C3280   1.414       .  A
C3279      C3286   1.449       .  S
C3280      C3281   1.433       .  A
C3281      C3282   1.421       .  A
C3281      C3284   1.449       .  S
C3282      C3285   1.454       .  S
C3283      N3290   1.156       .  T
C3284      N3289   1.157       .  T
C3285      N3287   1.158       .  T
C3286      N3288   1.157       .  T
C3291      C3292   1.425       .  A
C3291      C3296   1.422       .  A
C3292      C3297   1.450       .  S
C3293      C3294   1.416       .  A
C3293      C3300   1.455       .  S
C3295      C3296   1.439       .  A
C3295      C3298   1.447       .  S
C3296      C3299   1.447       .  S
C3297      N3304   1.157       .  T
C3298      N3303   1.157       .  T
C3299      N3301   1.157       .  T
C3300      N3302   1.157       .  T
C3305      C3469   1.530       .  S
C3305      C3310   1.419   1_545  A
C3306      C3307   1.425       .  A
C3306      C3311   1.436       .  S
C3307      C3308   1.410       .  A
C3307      C3314   1.448       .  S
C3309      C3310   1.427       .  A
C3309      C3312   1.443       .  S
C3310      C3313   1.447       .  S
C3311      N3318   1.154   1_554  T
C3312      N3317   1.156       .  T
C3313      N3315   1.157       .  T
C3314      N3316   1.157       .  T
C3319      C3324   1.414       .  A
C3320      C3321   1.418       .  A
C3320      C3325   1.445       .  S
C3321      C3328   1.450       .  S
C3322      C3323   1.422       .  A
C3323      C3324   1.422       .  A
C3323      C3326   1.450       .  S
C3324      C3327   1.450       .  S
C3325      N3332   1.155       .  T
C3326      N3331   1.157       .  T
C3327      N3329   1.158       .  T
C3328      N3330   1.157       .  T
C3333      C3334   1.415       .  A
C3333      C3338   1.411   1_655  A
C3334      C3335   1.421       .  A
C3334      C3339   1.449       .  S
C3335      C3336   1.416       .  A
C3335      C3342   1.450       .  S
C3336      C3337   1.415   1_655  A
C3337      C3338   1.419       .  A
C3339      N3346   1.157       .  T
C3340      N3345   1.157       .  T
C3341      N3343   1.156       .  T
C3342      N3344   1.157       .  T
C3347      C3348   1.386       .  A
C3347      C3352   1.393       .  A
C3348      C3349   1.400       .  A
C3348      C3353   1.460       .  S
C3349      C3350   1.457       .  A
C3349      C3356   1.452       .  S
C3350      C3351   1.420       .  A
C3351      C3352   1.398       .  A
C3351      C3354   1.432       .  S
C3352      C3355   1.453       .  S
C3353      N3360   1.157       .  T
C3354      N3359   1.152       .  T
C3355      N3357   1.157       .  T
C3356      N3358   1.157       .  T
C3361      C3362   1.466       .  A
C3361      C3366   1.431       .  A
C3362      C3363   1.401       .  A
C3362      C3367   1.454       .  S
C3363      C3364   1.375       .  A
C3363      C3370   1.452       .  S
C3364      C3365   1.404       .  A
C3365      C3366   1.408       .  A
C3365      C3368   1.446       .  S
C3366      C3369   1.451       .  S
C3367      N3374   1.158       .  T
C3368      N3373   1.155       .  T
C3369      N3371   1.157       .  T
C3370      N3372   1.157       .  T
C3375      C3376   1.409       .  A
C3375      C3380   1.384       .  A
C3376      C3377   1.379       .  A
C3376      C3875   1.450       .  S
C3377      C3378   1.425       .  A
C3377      C3384   1.454       .  S
C3378      C3379   1.448       .  A
C3379      C3380   1.389       .  A
C3379      C3382   1.452       .  S
C3380      C3383   1.454       .  S
C3381      C3870   1.450       .  S
C3381      N3388   1.154       .  T
C3382      N3387   1.156       .  T
C3383      N3385   1.157       .  T
C3384      N3386   1.158       .  T
C3389      C3390   1.429       .  A
C3389      C3394   1.427       .  A
C3390      C3391   1.396       .  A
C3390      C3395   1.449       .  S
C3391      C3392   1.407       .  A
C3391      C3398   1.453       .  S
C3392      C3393   1.391       .  A
C3393      C3394   1.395       .  A
C3393      C3396   1.451       .  S
C3394      C3397   1.445       .  S
C3395      N3402   1.157       .  T
C3396      N3401   1.157       .  T
C3397      N3399   1.158       .  T
C3403      C3404   1.412       .  A
C3403      C3408   1.391       .  A
C3404      C3405   1.409       .  A
C3404      C3409   1.452       .  S
C3405      C3406   1.413       .  A
C3405      C3412   1.444       .  S
C3406      C3407   1.428       .  A
C3407      C3408   1.387       .  A
C3407      C3410   1.444       .  S
C3408      C3411   1.451       .  S
C3410      N3415   1.157       .  T
C3411      N3413   1.157       .  T
C3412      N3414   1.156       .  T
C3417      C3418   1.409       .  A
C3417      C3422   1.417       .  A
C3418      C3419   1.395       .  A
C3418      C3423   1.447       .  S
C3419      C3420   1.404       .  A
C3419      C3426   1.449       .  S
C3420      C3421   1.406       .  A
C3421      C3422   1.399       .  A
C3421      C3424   1.451       .  S
C3422      C3425   1.448       .  S
C3423      N3430   1.158       .  T
C3424      N3429   1.157       .  T
C3425      N3427   1.158       .  T
C3426      N3428   1.157       .  T
C3431      C3432   1.406       .  A
C3431      C3436   1.396       .  A
C3432      C3433   1.391       .  A
C3432      C3437   1.455       .  S
C3433      C3434   1.423       .  A
C3433      C3440   1.448       .  S
C3434      C3435   1.423       .  A
C3435      C3436   1.394       .  A
C3435      C3438   1.448       .  S
C3436      C3439   1.450       .  S
C3437      N3444   1.157       .  T
C3438      N3443   1.158       .  T
C3439      N3441   1.157       .  T
C3440      N3442   1.157       .  T
C3445      C3446   1.431       .  A
C3445      C3450   1.410       .  A
C3446      C3447   1.417       .  A
C3446      C3451   1.440       .  S
C3447      C3448   1.406       .  A
C3447      C3454   1.452   1_655  S
C3448      C3449   1.413       .  A
C3449      C3450   1.361       .  A
C3449      C3452   1.454       .  S
C3450      C3453   1.451       .  S
C3451      N3458   1.156       .  T
C3452      N3457   1.158       .  T
C3453      N3455   1.158       .  T
C3454      N3456   1.157       .  T
C3459      C3900   1.559       .  S
C3459      C3911   1.556       .  S
C3459      C3928   1.557       .  S
C3459      C3939   1.561       .  S
C3460      C3844   1.599       .  S
C3460      C3855   1.591       .  S
C3460      C3872   1.516       .  S
C3460      C3883   1.568       .  S
C3461      N3479   1.369       .  A
C3461      C3498   1.452       .  S
C3461      C3774   1.527       .  S
N3462      N3479   1.338       .  A
N3462      N3484   1.316       .  A
C3463      N3488   1.329       .  A
C3463      C3501   1.455       .  S
H3464      C3505   1.081       .  S
C3465      N3489   1.360       .  A
C3465      C3469   1.487   1_556  S
C3465      H3494   1.080       .  S
Co3466     N3484   2.033   1_554  S
N3467      C3505   1.352       .  A
N3467     Co3468   2.129   1_565  S
Co3468     N3471   2.071       .  S
N3470      N3477   1.325   1_545  A
N3470      N3500   1.314   1_545  A
N3471      N3507   1.330   1_545  A
N3472      C3501   1.341       .  A
N3472      N3482   1.313       .  A
H3473      C3498   1.079       .  S
N3474      N3495   1.326       .  A
N3475      N3480   1.339       .  A
C3476      N3480   1.374       .  A
C3476      C3757   1.523       .  S
N3477      C3492   1.327       .  A
C3478      N3506   1.366       .  A
C3478      C3481   1.496       .  S
C3478      H3512   1.074       .  S
C3481      N3502   1.343       .  A
C3481      C3785   1.532       .  S
N3482      N3488   1.324       .  A
N3483      C3509   1.348       .  A
N3483      N3485   1.318   1_455  A
N3484      C3498   1.333       .  A
N3485      N3513   1.330       .  A
N3485     Co3503   2.097       .  S
H3486      C3509   1.081       .  S
H3487      C3504   1.077       .  S
N3490      N3502   1.322       .  A
N3490      N3506   1.320       .  A
N3490     Co3499   2.042       .  S
C3491      N3495   1.347       .  A
C3491      C3816   1.507       .  S
C3492      C3511   1.453       .  S
C3492      H3496   1.078       .  S
N3493      C3504   1.325       .  A
N3493     Co3503   2.038       .  S
C3497      N3513   1.352       .  A
C3497      C3509   1.465   1_655  S
C3497      C3830   1.503       .  S
N3500      C3511   1.338       .  A
C3501      C3886   1.443       .  S
Co3503    Cl3510   2.427       .  S
C3511      C3897   1.441       .  S
C3514      N3532   1.360       .  A
C3514      C3551   1.472       .  S
C3514      C3746   1.535       .  S
N3515      N3537   1.319       .  A
N3515     Co3552   2.108   1_554  S
C3516      N3541   1.336       .  A
C3516      C3554   1.452       .  S
C3516      H3561   1.081       .  S
H3517      C3558   1.079       .  S
C3518      C3522   1.458       .  S
C3518      H3547   1.082       .  S
Co3519     N3537   2.115   1_556  S
Co3519     N3559   2.027       .  S
Co3519     N3535   2.153       .  S
Co3519    Cl3563   2.439       .  S
N3520      C3558   1.354       .  A
N3520      N3527   1.312       .  A
Co3521     N3541   2.043       .  S
Co3521     N3528   2.089       .  S
Co3521    Cl3563   2.443       .  S
C3522      N3560   1.333       .  A
C3522      C3869   1.436       .  S
N3523      N3530   1.314   1_554  A
N3523      N3553   1.332       .  A
N3523     Co3556   2.115   1_554  S
N3524      N3560   1.308       .  A
N3525      C3554   1.370       .  A
N3525      N3535   1.337       .  A
H3526      C3551   1.069       .  S
N3527      N3548   1.311       .  A
N3528      N3546   1.320       .  A
N3528      N3533   1.330       .  A
C3529      N3533   1.354       .  A
C3529      C3557   1.450       .  S
C3529      C3729   1.494       .  S
N3530      C3545   1.337   1_556  A
N3530     Co3552   2.070       .  S
C3531      N3559   1.321       .  A
C3531      C3534   1.459       .  S
C3531      H3565   1.079       .  S
C3534      N3555   1.349       .  A
C3534      C3914   1.467       .  S
N3535      N3541   1.313       .  A
N3536      C3562   1.357       .  A
N3536      N3538   1.315       .  A
N3536     Co3552   2.136       .  S
N3538      N3566   1.323       .  A
N3538     Co3556   2.067       .  S
H3539      C3562   1.080       .  S
H3540      C3557   1.078       .  S
N3542     Co3556   2.039   1_554  S
N3543      N3555   1.316       .  A
N3543      N3559   1.316       .  A
N3543     Co3552   2.050       .  S
C3544      N3548   1.341       .  A
C3544      C3558   1.486       .  S
C3544      C3704   1.509       .  S
C3545      H3549   1.079       .  S
N3546      C3557   1.338       .  A
N3546     Co3556   2.092       .  S
C3550      N3566   1.343       .  A
C3550      C3562   1.480       .  S
C3550      C3718   1.503       .  S
Co3552    Cl3563   2.449       .  S
C3554      C3771   1.509       .  S
Co3556    Cl3563   2.431       .  S
C3564      C3760   1.497       .  S
C3567      N3585   1.347       .  A
C3567      C3604   1.481       .  S
C3567      C3732   1.515       .  S
N3568      N3585   1.319       .  A
N3568      N3590   1.322       .  A
N3568     Co3605   2.077       .  S
C3569      N3594   1.340       .  A
C3569      H3614   1.081       .  S
H3570      C3611   1.082       .  S
C3571      N3595   1.335       .  A
C3571      C3575   1.446       .  S
C3571      H3600   1.080       .  S
Co3572     N3590   2.115       .  S
Co3572     N3580   2.131       .  S
Co3572     N3612   2.102       .  S
Co3572     N3588   2.119       .  S
N3573      C3611   1.348       .  A
N3573      N3580   1.320       .  A
Co3574     N3577   2.056       .  S
Co3574     N3594   2.086       .  S
Co3574     N3581   2.073       .  S
Co3574    Cl3616   2.449   1_655  S
C3575      N3613   1.354       .  A
C3575      C3942   1.458       .  S
N3576      N3583   1.315   1_655  A
N3576      N3606   1.330       .  A
N3576     Co3609   2.110       .  S
N3577      N3595   1.314       .  A
N3577      N3613   1.318       .  A
N3578      C3607   1.360       .  A
N3578      N3588   1.333       .  A
H3579      C3604   1.077       .  S
N3580      N3601   1.337       .  A
N3581      N3599   1.321       .  A
N3581      N3586   1.323       .  A
C3582      N3586   1.344       .  A
C3582      C3610   1.475       .  S
C3582      C3743   1.508       .  S
C3584      N3612   1.345       .  A
C3584      C3587   1.477       .  S
C3584      H3618   1.080       .  S
C3587      N3608   1.331       .  A
C3587      C3858   1.471       .  S
N3589      C3615   1.345       .  A
N3589      N3591   1.311       .  A
N3590      C3604   1.348       .  A
N3591      N3619   1.327       .  A
N3591     Co3609   2.077       .  S
H3592      C3615   1.075       .  S
H3593      C3610   1.082       .  S
N3595     Co3609   2.051       .  S
N3596      N3608   1.312       .  A
N3596      N3612   1.319       .  A
N3596     Co3605   2.017       .  S
C3597      N3601   1.365       .  A
C3597      C3611   1.468       .  S
C3597      C3687   1.528       .  S
C3598      H3602   1.080       .  S
N3599      C3610   1.354       .  A
N3599     Co3609   2.124       .  S
C3603      N3619   1.360       .  A
C3603      C3615   1.482       .  S
C3603      C3676   1.537       .  S
N3606      C3617   1.354       .  A
C3607      C3813   1.506       .  S
Co3609    Cl3616   2.440   1_655  S
C3617      C3827   1.504       .  S
C3620      N3638   1.374       .  A
C3620      C3657   1.452   1_565  S
C3620      C3788   1.529       .  S
N3621      N3638   1.345   1_545  A
N3621      N3643   1.316       .  A
C3622      N3647   1.330       .  A
C3622      C3660   1.450       .  S
C3622      H3667   1.081       .  S
H3623      C3664   1.081       .  S
C3624      N3648   1.342       .  A
C3624      C3628   1.464       .  S
C3624      H3653   1.081       .  S
Co3625     N3665   2.180       .  S
Co3625     N3641   2.036       .  S
N3626      C3664   1.349       .  A
N3626      N3633   1.325       .  A
N3626     Co3627   2.118   1_565  S
Co3627     N3630   2.070   1_545  S
Co3627    Cl3669   2.471       .  S
C3628      N3666   1.352       .  A
C3628      C3701   1.489       .  S
N3629      N3636   1.316       .  A
N3629      N3659   1.309       .  A
N3629     Co3662   2.010       .  S
N3630      N3648   1.315       .  A
N3630      N3666   1.325       .  A
N3631      C3660   1.333       .  A
N3631      N3641   1.315       .  A
H3632      C3657   1.081       .  S
N3633      N3654   1.336       .  A
N3634      N3652   1.318       .  A
N3634      N3639   1.339       .  A
C3635      N3639   1.370       .  A
C3635      C3663   1.455       .  S
C3635      C3802   1.516       .  S
N3636      C3651   1.327       .  A
C3637      N3665   1.365       .  A
C3637      C3640   1.504       .  S
C3637      H3671   1.079       .  S
C3640      N3661   1.337       .  A
C3640      C3715   1.530       .  S
N3641      N3647   1.324       .  A
N3642      C3668   1.348       .  A
N3642      N3644   1.322       .  A
N3642     Co3658   2.122       .  S
N3643      C3657   1.331       .  A
N3644      N3672   1.330       .  A
H3645      C3668   1.079       .  S
H3646      C3663   1.081       .  S
N3648     Co3662   2.101       .  S
N3649      N3661   1.314       .  A
N3649      N3665   1.317       .  A
N3649     Co3658   2.033       .  S
C3650      N3654   1.361       .  A
C3650      C3664   1.462       .  S
C3650      C3690   1.519       .  S
C3651      C3670   1.463       .  S
C3651      H3655   1.074       .  S
N3652      C3663   1.339       .  A
C3656      N3672   1.353       .  A
C3656      C3668   1.464       .  S
C3656      C3673   1.507       .  S
N3659      C3670   1.329       .  A
C3660      C3841   1.441       .  S
Co3662    Cl3669   2.434   1_565  S
C3670      C3925   1.430       .  S
C3673      C3674   1.411       .  A
C3673      C3678   1.409       .  A
C3674      C3675   1.422       .  A
C3674      C3679   1.452       .  S
C3675      C3676   1.432       .  A
C3675      C3682   1.451       .  S
C3676      C3677   1.432       .  A
C3677      C3678   1.424       .  A
C3677      C3680   1.447       .  S
C3678      C3681   1.453       .  S
C3679      N3686   1.157       .  T
C3680      N3685   1.158       .  T
C3681      N3683   1.157       .  T
C3682      N3684   1.158       .  T
C3687      C3688   1.422       .  A
C3687      C3692   1.418       .  A
C3688      C3689   1.427       .  A
C3688      C3693   1.449       .  S
C3689      C3690   1.416       .  A
C3689      C3696   1.450       .  S
C3690      C3691   1.416       .  A
C3691      C3692   1.428       .  A
C3691      C3694   1.450       .  S
C3692      C3695   1.444       .  S
C3693      N3700   1.157       .  T
C3694      N3699   1.157       .  T
C3695      N3697   1.155       .  T
C3696      N3698   1.157       .  T
C3701      C3702   1.406       .  A
C3701      C3706   1.413       .  A
C3702      C3703   1.403       .  A
C3702      C3707   1.453       .  S
C3703      C3704   1.427       .  A
C3703      C3710   1.453       .  S
C3704      C3705   1.420       .  A
C3705      C3706   1.421       .  A
C3705      C3708   1.446       .  S
C3706      C3709   1.451       .  S
C3707      N3714   1.158       .  T
C3708      N3713   1.157       .  T
C3709      N3711   1.158       .  T
C3710      N3712   1.157       .  T
C3715      C3716   1.440       .  A
C3715      C3720   1.419       .  A
C3716      C3717   1.419       .  A
C3716      C3721   1.452       .  S
C3717      C3718   1.402       .  A
C3717      C3724   1.452       .  S
C3718      C3719   1.413       .  A
C3719      C3720   1.425       .  A
C3719      C3722   1.445       .  S
C3720      C3723   1.448       .  S
C3721      N3728   1.158       .  T
C3722      N3727   1.155       .  T
C3723      N3725   1.158       .  T
C3724      N3726   1.157       .  T
C3729      C3730   1.412       .  A
C3729      C3734   1.415       .  A
C3730      C3731   1.412       .  A
C3730      C3735   1.454       .  S
C3731      C3732   1.425       .  A
C3731      C3738   1.452       .  S
C3732      C3733   1.419       .  A
C3733      C3734   1.420       .  A
C3733      C3736   1.446       .  S
C3734      C3737   1.452       .  S
C3735      N3742   1.158       .  T
C3736      N3741   1.157       .  T
C3737      N3739   1.157       .  T
C3738      N3740   1.157       .  T
C3743      C3744   1.414       .  A
C3743      C3748   1.411       .  A
C3744      C3745   1.426       .  A
C3744      C3749   1.452       .  S
C3745      C3746   1.429       .  A
C3745      C3752   1.448       .  S
C3746      C3747   1.428       .  A
C3747      C3748   1.419       .  A
C3747      C3750   1.447       .  S
C3748      C3751   1.454       .  S
C3749      N3756   1.158       .  T
C3750      N3755   1.157       .  T
C3751      N3753   1.157       .  T
C3752      N3754   1.157       .  T
C3757      C3762   1.414       .  A
C3758      C3759   1.414       .  A
C3758      C3763   1.453   1_554  S
C3759      C3766   1.453   1_554  S
C3760      C3761   1.414       .  A
C3761      C3762   1.424       .  A
C3761      C3764   1.448       .  S
C3762      C3765   1.443       .  S
C3763      N3770   1.158       .  T
C3764      N3769   1.157       .  T
C3765      N3767   1.156       .  T
C3766      N3768   1.157       .  T
C3771      C3772   1.418       .  A
C3771      C3776   1.409       .  A
C3772      C3773   1.425       .  A
C3772      C3777   1.447       .  S
C3773      C3774   1.414       .  A
C3773      C3780   1.449       .  S
C3774      C3775   1.433       .  A
C3775      C3776   1.421       .  A
C3775      C3778   1.449       .  S
C3776      C3779   1.454       .  S
C3777      N3784   1.156       .  T
C3778      N3783   1.157   1_556  T
C3779      N3781   1.158   1_556  T
C3780      N3782   1.157       .  T
C3785      C3786   1.425       .  A
C3785      C3790   1.422       .  A
C3786      C3791   1.450       .  S
C3787      C3788   1.416       .  A
C3787      C3794   1.455       .  S
C3789      C3790   1.439       .  A
C3789      C3792   1.447       .  S
C3790      C3793   1.447       .  S
C3791      N3798   1.157       .  T
C3792      N3797   1.157       .  T
C3793      N3795   1.157       .  T
C3794      N3796   1.157       .  T
C3799      C3804   1.419   1_545  A
C3800      C3801   1.425       .  A
C3800      C3805   1.436       .  S
C3801      C3802   1.410       .  A
C3801      C3808   1.448       .  S
C3803      C3804   1.427       .  A
C3803      C3806   1.443       .  S
C3804      C3807   1.447       .  S
C3805      N3812   1.154       .  T
C3806      N3811   1.156       .  T
C3807      N3809   1.157       .  T
C3808      N3810   1.157       .  T
C3813      C3818   1.414       .  A
C3814      C3815   1.418       .  A
C3814      C3819   1.445       .  S
C3815      C3822   1.450       .  S
C3816      C3817   1.422       .  A
C3817      C3818   1.422       .  A
C3817      C3820   1.450       .  S
C3818      C3821   1.450       .  S
C3819      N3826   1.155       .  T
C3820      N3825   1.157       .  T
C3821      N3823   1.158       .  T
C3822      N3824   1.157       .  T
C3827      C3828   1.415       .  A
C3827      C3832   1.411   1_655  A
C3828      C3829   1.421       .  A
C3828      C3833   1.449       .  S
C3829      C3830   1.416       .  A
C3829      C3836   1.450       .  S
C3830      C3831   1.415   1_655  A
C3831      C3832   1.419       .  A
C3833      N3840   1.157       .  T
C3834      N3839   1.157       .  T
C3835      N3837   1.156       .  T
C3836      N3838   1.157       .  T
C3841      C3842   1.386       .  A
C3841      C3846   1.393       .  A
C3842      C3843   1.400       .  A
C3842      C3847   1.460       .  S
C3843      C3844   1.457       .  A
C3843      C3850   1.452       .  S
C3844      C3845   1.420       .  A
C3845      C3846   1.398       .  A
C3845      C3848   1.432       .  S
C3846      C3849   1.453       .  S
C3847      N3854   1.157       .  T
C3848      N3853   1.152       .  T
C3849      N3851   1.157       .  T
C3850      N3852   1.157       .  T
C3855      C3856   1.466       .  A
C3855      C3860   1.431       .  A
C3856      C3857   1.401       .  A
C3856      C3861   1.454       .  S
C3857      C3858   1.375       .  A
C3857      C3864   1.452       .  S
C3858      C3859   1.404       .  A
C3859      C3860   1.408       .  A
C3859      C3862   1.446       .  S
C3860      C3863   1.451       .  S
C3861      N3868   1.158       .  T
C3862      N3867   1.155       .  T
C3863      N3865   1.157       .  T
C3864      N3866   1.157       .  T
C3869      C3870   1.409       .  A
C3869      C3874   1.384       .  A
C3870      C3871   1.379       .  A
C3871      C3872   1.425       .  A
C3871      C3878   1.454       .  S
C3872      C3873   1.448       .  A
C3873      C3874   1.389       .  A
C3873      C3876   1.452       .  S
C3874      C3877   1.454       .  S
C3875      N3882   1.154   1_554  T
C3876      N3881   1.156       .  T
C3877      N3879   1.157       .  T
C3878      N3880   1.158       .  T
C3883      C3884   1.429       .  A
C3883      C3888   1.427       .  A
C3884      C3885   1.396       .  A
C3884      C3889   1.449       .  S
C3885      C3886   1.407       .  A
C3885      C3892   1.453       .  S
C3886      C3887   1.391       .  A
C3887      C3888   1.395       .  A
C3887      C3890   1.451       .  S
C3888      C3891   1.445       .  S
C3889      N3896   1.157       .  T
C3890      N3895   1.157       .  T
C3891      N3893   1.158       .  T
C3897      C3898   1.412       .  A
C3897      C3902   1.391       .  A
C3898      C3899   1.409       .  A
C3898      C3903   1.452       .  S
C3899      C3900   1.413       .  A
C3899      C3906   1.444       .  S
C3900      C3901   1.428       .  A
C3901      C3902   1.387       .  A
C3901      C3904   1.444       .  S
C3902      C3905   1.451       .  S
C3904      N3909   1.157       .  T
C3905      N3907   1.157       .  T
C3906      N3908   1.156       .  T
C3911      C3912   1.409       .  A
C3911      C3916   1.417       .  A
C3912      C3913   1.395       .  A
C3912      C3917   1.447       .  S
C3913      C3914   1.404       .  A
C3913      C3920   1.449       .  S
C3914      C3915   1.406       .  A
C3915      C3916   1.399       .  A
C3915      C3918   1.451       .  S
C3916      C3919   1.448       .  S
C3917      N3924   1.158       .  T
C3918      N3923   1.157       .  T
C3919      N3921   1.158       .  T
C3920      N3922   1.157       .  T
C3925      C3926   1.406       .  A
C3925      C3930   1.396       .  A
C3926      C3927   1.391       .  A
C3926      C3931   1.455       .  S
C3927      C3928   1.423       .  A
C3927      C3934   1.448       .  S
C3928      C3929   1.423       .  A
C3929      C3930   1.394       .  A
C3929      C3932   1.448       .  S
C3930      C3933   1.450       .  S
C3931      N3938   1.157       .  T
C3932      N3937   1.158       .  T
C3933      N3935   1.157       .  T
C3934      N3936   1.157       .  T
C3939      C3940   1.431       .  A
C3939      C3944   1.410       .  A
C3940      C3941   1.417       .  A
C3940      C3945   1.440       .  S
C3941      C3942   1.406       .  A
C3941      C3948   1.452   1_655  S
C3942      C3943   1.413       .  A
C3943      C3944   1.361       .  A
C3943      C3946   1.454       .  S
C3944      C3947   1.451       .  S
C3945      N3952   1.155       .  T
C3946      N3951   1.158       .  T
C3947      N3949   1.158       .  T
C3948      N3950   1.157       .  T
