geometry optimzed in LAMMPS
_audit_creation_date              2020-11-30 
_audit_creation_method            'lammps2cif' 
_symmetry_space_group_name_H-M    'P1' 
_symmetry_Int_Tables_number       1 
_symmetry_cell_setting            triclinic 
loop_ 
_symmetry_equiv_pos_as_xyz 
  x,y,z 
_cell_length_a                    25.37328082536248 
_cell_length_b                    25.369858134584376 
_cell_length_c                    44.17474466653329 
_cell_angle_alpha                 90.0688017099769 
_cell_angle_beta                  90.02120361504704 
_cell_angle_gamma                 90.46815311365526 
loop_ 
_atom_site_label 
_atom_site_type_symbol 
_atom_site_fract_x 
_atom_site_fract_y 
_atom_site_fract_z 
_atom_site_charge 
C1          C  0.74114674  0.49961882  0.26312452     0.03410
C2          C  0.71348601  0.45125500  0.25760802    -0.12730
C3          C  0.66260135  0.45291506  0.24543860     0.00920
C4          C  0.64516215  0.50207263  0.23548061    -0.11260
C5          C  0.66160225  0.54821637  0.24999881     0.03410
C6          C  0.71172035  0.54744040  0.26334245    -0.10680
H7          H  0.73106617  0.41322090  0.26115833     0.09000
H8          H  0.61241499  0.50361934  0.22059682     0.06530
H9          H  0.72840734  0.58349502  0.27250629     0.06380
C10         C  0.57292724  0.66834047  0.23971707     0.03410
C11         C  0.52454121  0.63965848  0.24116983    -0.12730
C12         C  0.52437336  0.58867585  0.25325274     0.00920
C13         C  0.57161529  0.57135520  0.26600564    -0.11260
C14         C  0.62011231  0.58941428  0.25489733     0.03410
C15         C  0.62123691  0.64062683  0.24291184    -0.10680
H16         H  0.48792827  0.65742626  0.23402065     0.09000
H17         H  0.57074154  0.53846074  0.28086140     0.06530
H18         H  0.65870790  0.65905396  0.23760154     0.06380
C19         C  0.57296958  0.33083733  0.23484356     0.03410
C20         C  0.62166598  0.35930354  0.23756200    -0.12730
C21         C  0.62080564  0.41093145  0.24898819     0.00920
C22         C  0.57307049  0.42793419  0.26086617    -0.11260
C23         C  0.52549619  0.41043897  0.24867610     0.03410
C24         C  0.52485185  0.35952857  0.23638727    -0.10680
H25         H  0.65920342  0.34146014  0.23266742     0.09000
H26         H  0.57310672  0.46123682  0.27527768     0.06530
H27         H  0.48781173  0.34166555  0.22953258     0.06380
C28         C  0.40404786  0.49703217  0.26010214     0.03410
C29         C  0.43182420  0.54610929  0.25902552    -0.12730
C30         C  0.48316530  0.54708565  0.24727323     0.00920
C31         C  0.50102287  0.50051326  0.23408912    -0.11260
C32         C  0.48386869  0.45160220  0.24495623     0.03410
C33         C  0.43320758  0.44951880  0.25741655    -0.10680
H34         H  0.41346584  0.58262906  0.26577081     0.09000
H35         H  0.53436349  0.50210717  0.21962859     0.06530
H36         H  0.41595718  0.41190134  0.26367968     0.06380
O37         O  0.02670317  0.50046559  0.04454715    -0.72660
O38         O  0.02929721  0.49902479  0.45365236    -0.73640
O39         O  0.02782226  0.42085748  0.49837315    -0.62260
O40         O  0.02775852  0.57902665  0.49787598    -0.70670
O41         O  0.11514235  0.57983430  0.49998741    -0.70220
O42         O  0.11528033  0.42189739  0.49949131    -0.61470
O43         O  0.11676910  0.50159962  0.45476352    -0.73980
O44         O  0.11393149  0.50078871  0.04548853    -0.72760
Cu45       Cu  0.02482041  0.49982985  0.49878423     1.04560
Cu46       Cu  0.11829571  0.50100139  0.50010018     1.04330
C47         C  0.06989209  0.50083307  0.05952593     0.93540
C48         C  0.07355996  0.50041892  0.43992894     0.92680
C49         C  0.07165941  0.39649908  0.49781210     0.84820
C50         C  0.07150543  0.60434308  0.49797952     0.91100
O51         O  0.07027891  0.45877557  0.20475210    -0.72660
O52         O  0.07276624  0.45773917  0.29545377    -0.73640
O53         O  0.99307990  0.45904197  0.25164372    -0.62260
O54         O  0.15094055  0.45770645  0.24981467    -0.70670
O55         O  0.15295832  0.54519178  0.25146084    -0.70220
O56         O  0.99494437  0.54645650  0.25118638    -0.61470
O57         O  0.07456583  0.54535176  0.29597623    -0.73980
O58         O  0.07425595  0.54629102  0.20510508    -0.72760
Cu59       Cu  0.07178636  0.45527104  0.25022919     1.04560
Cu60       Cu  0.07418255  0.54891265  0.25075372     1.04330
C61         C  0.07200492  0.50266348  0.19065280     0.93540
C62         C  0.07373272  0.50131690  0.30992230     0.92680
C63         C  0.96907354  0.50306790  0.25263707     0.84820
C64         C  0.17677996  0.50106287  0.25166446     0.91100
O65         O  0.57442935  0.04393026  0.04559805    -0.72660
O66         O  0.57562228  0.04179062  0.45473329    -0.73640
O67         O  0.49540434  0.04359763  0.50022957    -0.62260
O68         O  0.65356834  0.04210947  0.50070843    -0.70670
O69         O  0.65164064  0.95459118  0.50248856    -0.70220
O70         O  0.49328248  0.95615048  0.50136125    -0.61470
O71         O  0.57278780  0.95433483  0.45550231    -0.73980
O72         O  0.57088936  0.95641194  0.04631635    -0.72760
Cu73       Cu  0.57475288  0.04590447  0.50017346     1.04560
Cu74       Cu  0.57218486  0.95229539  0.50123814     1.04330
C75         C  0.57211908  0.00053208  0.06020268     0.93540
C76         C  0.57441983  0.99768315  0.44075433     0.92680
C77         C  0.46940863  0.00027647  0.50169803     0.84820
C78         C  0.67738526  0.99811538  0.50262915     0.91100
O79         O  0.61710975  0.00144818  0.20414764    -0.72660
O80         O  0.61928116  0.00078672  0.29498474    -0.73640
O81         O  0.61924067  0.92126690  0.24843605    -0.62260
O82         O  0.61720491  0.07972114  0.24872213    -0.70670
O83         O  0.52977394  0.07763819  0.24998567    -0.70220
O84         O  0.53178179  0.91962202  0.25013638    -0.61470
O85         O  0.53185526  0.99796071  0.29580132    -0.73980
O86         O  0.52961442  0.99818674  0.20494842    -0.72760
Cu87       Cu  0.62128961  0.00079210  0.24924759     1.04560
Cu88       Cu  0.52772707  0.99833255  0.25036714     1.04330
C89         C  0.57297665  0.00033809  0.19028914     0.93540
C90         C  0.57594972  0.99921420  0.30976758     0.92680
C91         C  0.57569592  0.89554966  0.24853469     0.84820
C92         C  0.57307227  0.10358758  0.24822371     0.91100
C93         C  0.07139069  0.83159381  0.48704667     0.03410
C94         C  0.11976339  0.86058354  0.48765766    -0.12730
C95         C  0.12053808  0.91119981  0.50025271     0.00920
C96         C  0.07393508  0.92815486  0.51377135    -0.11260
C97         C  0.02490864  0.91051430  0.50317994     0.03410
C98         C  0.02312537  0.85929417  0.49119688    -0.10680
H99         H  0.15609310  0.84307892  0.47983236     0.09000
H100        H  0.07543880  0.96120885  0.52843761     0.06530
H101        H  0.98526863  0.84106375  0.48677587     0.06380
C102        C  0.24170222  0.00006386  0.51128429     0.03410
C103        C  0.21352183  0.95154071  0.50766114    -0.12730
C104        C  0.16250631  0.95248210  0.49542701     0.00920
C105        C  0.14540407  0.00067878  0.48395333    -0.11260
C106        C  0.16265821  0.04793349  0.49694116     0.03410
C107        C  0.21304849  0.04809352  0.50987981    -0.10680
H108        H  0.23113908  0.91395328  0.51271353     0.09000
H109        H  0.11307901  0.00117723  0.46865773     0.06530
H110        H  0.23053609  0.08485237  0.51752667     0.06380
C111        C  0.07434409  0.16904343  0.48881057     0.03410
C112        C  0.12203170  0.13983619  0.48942134    -0.12730
C113        C  0.12153836  0.08918596  0.50191131     0.00920
C114        C  0.07424860  0.07216347  0.51485922    -0.11260
C115        C  0.02603172  0.08987996  0.50360899     0.03410
C116        C  0.02550145  0.14126396  0.49187951    -0.10680
H117        H  0.15875590  0.15706628  0.48160860     0.09000
H118        H  0.07452357  0.03912623  0.52954174     0.06530
H119        H  0.98827980  0.15963838  0.48660516     0.06380
C120        C  0.90402836  0.00035553  0.51210384     0.03410
C121        C  0.93259145  0.04882415  0.51014076    -0.12730
C122        C  0.98427320  0.04814341  0.49904969     0.00920
C123        C  0.00175275  0.00021449  0.48745017    -0.11260
C124        C  0.98360582  0.95237321  0.49921993     0.03410
C125        C  0.93177556  0.95177590  0.51042585    -0.10680
H126        H  0.91420177  0.08586762  0.51591122     0.09000
H127        H  0.03567510  0.00017685  0.47357060     0.06530
H128        H  0.91274806  0.91478700  0.51620607     0.06380
C129        C  0.73513454  0.99794182  0.50545677    -0.05180
C130        C  0.76577766  0.02212137  0.48304520    -0.32610
C131        C  0.82069824  0.02300914  0.48533146     0.36640
C132        C  0.84581926  0.00076001  0.51075919    -0.05540
C133        C  0.81513789  0.97658219  0.03328352    -0.32630
C134        C  0.75995858  0.97545587  0.03085288     0.36550
H135        H  0.74707170  0.03947974  0.46341851     0.16920
O136        O  0.84967389  0.04464079  0.46217908    -0.60010
H137        H  0.83394272  0.95900744  0.05279613     0.16930
O138        O  0.73057607  0.95319058  0.05361859    -0.60100
H139        H  0.72092683  0.98293241  0.06706806     0.43930
H140        H  0.85849376  0.01462351  0.44874326     0.43880
C141        C  0.41143043  0.00112206  0.50484184    -0.05180
C142        C  0.38606142  0.96375233  0.02337498    -0.32610
C143        C  0.33106761  0.96395234  0.02709364     0.36640
C144        C  0.30043976  0.00172180  0.51181015    -0.05540
C145        C  0.32635329  0.03952002  0.49367059    -0.32510
C146        C  0.38114175  0.03978091  0.49040174     0.36550
H147        H  0.40905229  0.93467931  0.03540580     0.16920
O148        O  0.30803782  0.92867764  0.04666216    -0.60010
H149        H  0.30390906  0.06822720  0.48103791     0.16930
O150        O  0.40437810  0.07625983  0.47167364    -0.60100
H151        H  0.40772128  0.10877445  0.48403709     0.43930
H152        H  0.31391615  0.89336220  0.03765987     0.43880
C153        C  0.57517592  0.99706829  0.40727636    -0.05180
C154        C  0.60983772  0.03076775  0.39162650    -0.32610
C155        C  0.61142319  0.03088625  0.35988708     0.36640
C156        C  0.57654975  0.99847293  0.34326566    -0.05540
C157        C  0.54128041  0.96539946  0.35893257    -0.32510
C158        C  0.54111742  0.96380419  0.39067033     0.36550
H159        H  0.63624889  0.05665679  0.40407268     0.16920
O160        O  0.64549228  0.06457362  0.34532867    -0.60010
H161        H  0.51416523  0.94022011  0.34650475     0.16930
O162        O  0.50582969  0.93142756  0.40525369    -0.60100
H163        H  0.52302268  0.89648891  0.40601282     0.43930
H164        H  0.67956262  0.04573175  0.34462033     0.43880
C165        C  0.57114365  0.00122106  0.09342153    -0.05180
C166        C  0.60545894  0.03501100  0.10918455    -0.32610
C167        C  0.60680792  0.03464562  0.14082334     0.36640
C168        C  0.57218122  0.00147764  0.15704687    -0.05540
C169        C  0.53675773  0.96883839  0.14126949    -0.32510
C170        C  0.53672491  0.96784627  0.10962398     0.36550
H171        H  0.63207123  0.06090927  0.09692774     0.16920
O172        O  0.64069515  0.06818876  0.15570929    -0.60010
H173        H  0.50982577  0.94325087  0.15350861     0.16930
O174        O  0.50165474  0.93557636  0.09471420    -0.60100
H175        H  0.51857006  0.90048196  0.09421362     0.43930
H176        H  0.67509735  0.04991105  0.15584858     0.43880
C177        C  0.07605646  0.22765534  0.48883678    -0.05180
C178        C  0.03830878  0.25680648  0.47286470    -0.32610
C179        C  0.03599327  0.31179746  0.47584346     0.36640
C180        C  0.07224467  0.33859889  0.49467876    -0.05540
C181        C  0.11046657  0.30976306  0.01016080    -0.32510
C182        C  0.11225394  0.25488980  0.00771341     0.36550
H183        H  0.01026121  0.23695808  0.45819738     0.16920
O184        O  0.99939946  0.33914732  0.45941489    -0.60010
H185        H  0.13821720  0.32973582  0.02499250     0.16930
O186        O  0.14704263  0.22802895  0.02567724    -0.60100
H187        H  0.18210054  0.23352379  0.01621277     0.43930
H188        H  0.96650285  0.33717061  0.47149102     0.43880
C189        C  0.07180773  0.66226163  0.49478623    -0.05180
C190        C  0.03459192  0.68666302  0.47597779    -0.32610
C191        C  0.03492419  0.74157825  0.47193896     0.36640
C192        C  0.07267378  0.77297849  0.48712175    -0.05540
C193        C  0.11016017  0.74809471  0.00565298    -0.32510
C194        C  0.11027304  0.69342554  0.00929172     0.36550
H195        H  0.00564894  0.66298899  0.46394610     0.16920
O196        O  0.99984724  0.76382139  0.45215792    -0.60010
H197        H  0.13878172  0.77127764  0.01823169     0.16930
O198        O  0.14649226  0.67113426  0.02835688    -0.60100
H199        H  0.17921735  0.66819947  0.01622018     0.43930
H200        H  0.96452288  0.75811362  0.46126053     0.43880
C201        C  0.07372488  0.50077433  0.34306252    -0.05180
C202        C  0.11124501  0.53078103  0.35890842    -0.32610
C203        C  0.11245437  0.53005614  0.39054849     0.36640
C204        C  0.07451434  0.50049426  0.40665042    -0.05540
C205        C  0.03645888  0.47115614  0.39068950    -0.32510
C206        C  0.03623333  0.47072628  0.35907200     0.36550
H207        H  0.14011259  0.55421664  0.34670672     0.16920
O208        O  0.14940382  0.56005150  0.40551103    -0.60010
H209        H  0.00712856  0.44811026  0.40277452     0.16930
O210        O  0.99874746  0.44152363  0.34401656    -0.60100
H211        H  0.96970384  0.46639841  0.33979023     0.43930
H212        H  0.18171308  0.53831479  0.40579605     0.43880
C213        C  0.06946134  0.50155883  0.09328159    -0.05180
C214        C  0.11703174  0.50977575  0.10916007    -0.32610
C215        C  0.11815291  0.51051042  0.14087439     0.36640
C216        C  0.07143049  0.50282377  0.15735271    -0.05540
C217        C  0.02396872  0.49434109  0.14184794    -0.32510
C218        C  0.02253515  0.49416733  0.11009781     0.36550
H219        H  0.15365342  0.51578762  0.09700443     0.16920
O220        O  0.16514189  0.51871760  0.15558457    -0.60010
H221        H  0.98778916  0.48811916  0.15442815     0.16930
O222        O  0.97519421  0.48556127  0.09587404    -0.60100
H223        H  0.95843057  0.52068847  0.09475521     0.43930
H224        H  0.17921796  0.48299767  0.15946907     0.43880
C225        C  0.23458192  0.49988889  0.25468098    -0.05180
C226        C  0.26320541  0.46295346  0.23806861    -0.32610
C227        C  0.31805668  0.46117736  0.24016681     0.36640
C228        C  0.34544942  0.49543184  0.26015647    -0.05540
C229        C  0.31643513  0.53178821  0.27729328    -0.32510
C230        C  0.26146305  0.53429102  0.27458609     0.36550
H231        H  0.24307530  0.43647433  0.22255397     0.16920
O232        O  0.34454311  0.42730449  0.22144459    -0.60010
H233        H  0.33634065  0.55853238  0.29271571     0.16930
O234        O  0.23435668  0.57014163  0.29171455    -0.60100
H235        H  0.22453310  0.55101768  0.31047766     0.43930
H236        H  0.35351177  0.44837238  0.20323084     0.43880
C237        C  0.57220673  0.16142906  0.24431427    -0.05180
C238        C  0.60949359  0.18588861  0.22534087    -0.32610
C239        C  0.60914542  0.24063932  0.22064029     0.36640
C240        C  0.57135484  0.27204199  0.23540372    -0.05540
C241        C  0.53362206  0.24700673  0.25402284    -0.32510
C242        C  0.53344223  0.19238373  0.25821255     0.36550
H243        H  0.63857477  0.16232583  0.21366630     0.16920
O244        O  0.64427331  0.26260083  0.20059054    -0.60010
H245        H  0.50486341  0.27002767  0.26628410     0.16930
O246        O  0.49687208  0.17003148  0.27723809    -0.60100
H247        H  0.46447152  0.16595489  0.26485994     0.43930
H248        H  0.67965269  0.25716914  0.20958266     0.43880
C249        C  0.57223165  0.72680808  0.23964126    -0.05180
C250        C  0.53972820  0.75236297  0.26075507    -0.32610
C251        C  0.54124650  0.80708694  0.26411373     0.36640
C252        C  0.57560633  0.83756463  0.24620120    -0.05540
C253        C  0.60812875  0.81237087  0.22498603    -0.32510
C254        C  0.60628775  0.75738284  0.22143353     0.36550
H255        H  0.51408332  0.72959202  0.27546698     0.16920
O256        O  0.50983081  0.83031750  0.28550975    -0.60010
H257        H  0.63417791  0.83549607  0.21070082     0.16930
O258        O  0.63742612  0.73411896  0.19995247    -0.60100
H259        H  0.61446280  0.72989944  0.18192378     0.43930
H260        H  0.53231122  0.83377701  0.30379417     0.43880
C261        C  0.80006397  0.50181210  0.26412881    -0.05180
C262        C  0.82588190  0.54473641  0.25009329    -0.32610
C263        C  0.88062787  0.54619977  0.24669823     0.36640
C264        C  0.91114338  0.50350535  0.25652206    -0.05540
C265        C  0.88602138  0.46117894  0.27124778    -0.32510
C266        C  0.83116914  0.46017952  0.27536648     0.36550
H267        H  0.80351767  0.57688302  0.24057054     0.16920
O268        O  0.90349874  0.58846360  0.23232056    -0.60010
H269        H  0.90909113  0.42884852  0.28003296     0.16930
O270        O  0.80893924  0.41957672  0.29155269    -0.60100
H271        H  0.81568815  0.38717625  0.27959829     0.43930
H272        H  0.90744917  0.61594246  0.24817148     0.43880
C273        C  0.74114660  0.49962026  0.76312399     0.03410
C274        C  0.71348624  0.45125613  0.75760795    -0.12730
C275        C  0.66260147  0.45291567  0.74543856     0.00920
C276        C  0.64516180  0.50207307  0.73548054    -0.11260
C277        C  0.66160182  0.54821713  0.74999847     0.03410
C278        C  0.71172035  0.54744181  0.76334156    -0.10680
H279        H  0.73106725  0.41322239  0.76115853     0.09000
H280        H  0.61241453  0.50361941  0.72059683     0.06530
H281        H  0.72840788  0.58349680  0.77250462     0.06380
C282        C  0.57292600  0.66834099  0.73971785     0.03410
C283        C  0.52454005  0.63965886  0.74117084    -0.12730
C284        C  0.52437262  0.58867596  0.75325338     0.00920
C285        C  0.57161490  0.57135523  0.76600582    -0.11260
C286        C  0.62011162  0.58941467  0.75489727     0.03410
C287        C  0.62123582  0.64062745  0.74291213    -0.10680
H288        H  0.48792692  0.65742664  0.73402197     0.09000
H289        H  0.57074160  0.53846049  0.78086136     0.06530
H290        H  0.65870665  0.65905477  0.73760170     0.06380
C291        C  0.57297013  0.33083776  0.73484292     0.03410
C292        C  0.62166648  0.35930401  0.73756153    -0.12730
C293        C  0.62080599  0.41093173  0.74898804     0.00920
C294        C  0.57307064  0.42793423  0.76086594    -0.11260
C295        C  0.52549645  0.41043910  0.74867565     0.03410
C296        C  0.52485234  0.35952886  0.73638661    -0.10680
H297        H  0.65920395  0.34146069  0.73266689     0.09000
H298        H  0.57310666  0.46123659  0.77527765     0.06530
H299        H  0.48781229  0.34166577  0.72953184     0.06380
C300        C  0.40404742  0.49703136  0.76010206     0.03410
C301        C  0.43182356  0.54610866  0.75902589    -0.12730
C302        C  0.48316475  0.54708557  0.74727371     0.00920
C303        C  0.50102259  0.50051356  0.73408929    -0.11260
C304        C  0.48386868  0.45160218  0.74495601     0.03410
C305        C  0.43320742  0.44951819  0.75741614    -0.10680
H306        H  0.41346498  0.58262817  0.76577144     0.09000
H307        H  0.53436313  0.50210802  0.71962872     0.06530
H308        H  0.41595718  0.41190049  0.76367892     0.06380
O309        O  0.02670294  0.50046531  0.54454708    -0.72660
O310        O  0.02929693  0.49902476  0.95365244    -0.73640
O311        O  0.02782222  0.42085759  0.99837329    -0.62260
O312        O  0.02775850  0.57902675  0.99787599    -0.70670
O313        O  0.11514233  0.57983440  0.99998728    -0.70220
O314        O  0.11528029  0.42189748  0.99949132    -0.61470
O315        O  0.11676882  0.50159958  0.95476344    -0.73980
O316        O  0.11393126  0.50078845  0.54548859    -0.72760
Cu317      Cu  0.02482038  0.49982997  0.99878430     1.04560
Cu318      Cu  0.11829569  0.50100149  0.00010011     1.04330
C319        C  0.06989180  0.50083270  0.55952593     0.93540
C320        C  0.07355961  0.50041884  0.93992894     0.92680
C321        C  0.07165936  0.39649918  0.99781218     0.84820
C322        C  0.07150540  0.60434318  0.99797945     0.91100
O323        O  0.07027789  0.45877432  0.70475216    -0.72660
O324        O  0.07276548  0.45773833  0.79545386    -0.73640
O325        O  0.99307896  0.45904114  0.75164388    -0.62260
O326        O  0.15093979  0.45770510  0.74981469    -0.70670
O327        O  0.15295779  0.54519041  0.75146097    -0.70220
O328        O  0.99494380  0.54645572  0.75118595    -0.61470
O329        O  0.07456489  0.54535093  0.79597613    -0.73980
O330        O  0.07425579  0.54628974  0.70510501    -0.72760
Cu331      Cu  0.07178548  0.45526996  0.75022928     1.04560
Cu332      Cu  0.07418201  0.54891157  0.75075361     1.04330
C333        C  0.07200434  0.50266217  0.69065279     0.93540
C334        C  0.07373185  0.50131615  0.80992229     0.92680
C335        C  0.96907282  0.50306722  0.75263677     0.84820
C336        C  0.17677934  0.50106145  0.75166454     0.91100
O337        O  0.57442946  0.04393025  0.54559804    -0.72660
O338        O  0.57562211  0.04179075  0.95473332    -0.73640
O339        O  0.49540420  0.04359768  0.00022960    -0.62260
O340        O  0.65356820  0.04210953  0.00070843    -0.70670
O341        O  0.65164050  0.95459124  0.00248852    -0.70220
O342        O  0.49328234  0.95615053  0.00136124    -0.61470
O343        O  0.57278763  0.95433495  0.95550228    -0.73980
O344        O  0.57088947  0.95641193  0.54631637    -0.72760
Cu345      Cu  0.57475274  0.04590454  0.00017347     1.04560
Cu346      Cu  0.57218471  0.95229545  0.00123811     1.04330
C347        C  0.57211917  0.00053208  0.56020269     0.93540
C348        C  0.57441966  0.99768330  0.94075433     0.92680
C349        C  0.46940849  0.00027652  0.00169804     0.84820
C350        C  0.67738511  0.99811543  0.00262912     0.91100
O351        O  0.61710960  0.00144825  0.70414767    -0.72660
O352        O  0.61928093  0.00078729  0.79498476    -0.73640
O353        O  0.61924003  0.92126724  0.74843626    -0.62260
O354        O  0.61720517  0.07972149  0.74872198    -0.70670
O355        O  0.52977419  0.07763895  0.74998554    -0.70220
O356        O  0.53178114  0.91962276  0.75013657    -0.61470
O357        O  0.53185503  0.99796167  0.79580133    -0.73980
O358        O  0.52961426  0.99818724  0.70494843    -0.72760
Cu359      Cu  0.62128942  0.00079242  0.74924761     1.04560
Cu360      Cu  0.52772687  0.99833332  0.75036716     1.04330
C361        C  0.57297651  0.00033831  0.69028916     0.93540
C362        C  0.57594948  0.99921495  0.80976760     0.92680
C363        C  0.57569516  0.89555020  0.74853497     0.84820
C364        C  0.57307264  0.10358813  0.74822352     0.91100
C365        C  0.07139055  0.83159390  0.98704667     0.03410
C366        C  0.11976325  0.86058364  0.98765766    -0.12730
C367        C  0.12053794  0.91119990  0.00025272     0.00920
C368        C  0.07393493  0.92815493  0.01377137    -0.11260
C369        C  0.02490849  0.91051437  0.00317995     0.03410
C370        C  0.02312523  0.85929425  0.99119688    -0.10680
H371        H  0.15609296  0.84307903  0.97983236     0.09000
H372        H  0.07543865  0.96120891  0.02843764     0.06530
H373        H  0.98526849  0.84106383  0.98677586     0.06380
C374        C  0.24170208  0.00006394  0.01128431     0.03410
C375        C  0.21352169  0.95154079  0.00766117    -0.12730
C376        C  0.16250617  0.95248219  0.99542704     0.00920
C377        C  0.14540393  0.00067887  0.98395335    -0.11260
C378        C  0.16265807  0.04793358  0.99694119     0.03410
C379        C  0.21304836  0.04809360  0.00987984    -0.10680
H380        H  0.23113893  0.91395335  0.01271356     0.09000
H381        H  0.11307887  0.00117732  0.96865775     0.06530
H382        H  0.23053596  0.08485244  0.01752669     0.06380
C383        C  0.07434396  0.16904352  0.98881062     0.03410
C384        C  0.12203157  0.13983628  0.98942139    -0.12730
C385        C  0.12153822  0.08918604  0.00191134     0.00920
C386        C  0.07424846  0.07216354  0.01485924    -0.11260
C387        C  0.02603158  0.08988004  0.00360901     0.03410
C388        C  0.02550131  0.14126406  0.99187955    -0.10680
H389        H  0.15875577  0.15706638  0.98160865     0.09000
H390        H  0.07452342  0.03912629  0.02954175     0.06530
H391        H  0.98827966  0.15963848  0.98660520     0.06380
C392        C  0.90402821  0.00035561  0.01210385     0.03410
C393        C  0.93259130  0.04882422  0.01014077    -0.12730
C394        C  0.98427305  0.04814349  0.99904970     0.00920
C395        C  0.00175261  0.00021457  0.98745018    -0.11260
C396        C  0.98360567  0.95237329  0.99921994     0.03410
C397        C  0.93177541  0.95177597  0.01042586    -0.10680
H398        H  0.91420162  0.08586770  0.01591123     0.09000
H399        H  0.03567496  0.00017694  0.97357061     0.06530
H400        H  0.91274791  0.91478708  0.01620607     0.06380
C401        C  0.73513440  0.99794187  0.00545675    -0.05180
C402        C  0.76577752  0.02212143  0.98304518    -0.32610
C403        C  0.82069810  0.02300921  0.98533146     0.36640
C404        C  0.84581912  0.00076009  0.01075918    -0.05540
C405        C  0.81513804  0.97658213  0.53328353    -0.32630
C406        C  0.75995873  0.97545582  0.53085290     0.36550
H407        H  0.74707157  0.03947981  0.96341849     0.16920
O408        O  0.84967376  0.04464087  0.96217908    -0.60010
H409        H  0.83394288  0.95900738  0.55279614     0.16930
O410        O  0.73057623  0.95319054  0.55361861    -0.60100
H411        H  0.72092701  0.98293237  0.56706809     0.43930
H412        H  0.85849364  0.01462359  0.94874325     0.43880
C413        C  0.41143029  0.00112211  0.00484185    -0.05180
C414        C  0.38606156  0.96375227  0.52337496    -0.32610
C415        C  0.33106776  0.96395226  0.52709362     0.36640
C416        C  0.30043962  0.00172186  0.01181016    -0.05540
C417        C  0.32635315  0.03952006  0.99367059    -0.32510
C418        C  0.38114161  0.03978094  0.99040174     0.36550
H419        H  0.40905243  0.93467924  0.53540577     0.16920
O420        O  0.30803797  0.92867755  0.54666213    -0.60010
H421        H  0.30390892  0.06822723  0.98103790     0.16930
O422        O  0.40437796  0.07625984  0.97167363    -0.60100
H423        H  0.40772114  0.10877447  0.98403705     0.43930
H424        H  0.31391631  0.89336211  0.53765983     0.43880
C425        C  0.57517576  0.99706854  0.90727636    -0.05180
C426        C  0.60983755  0.03076808  0.89162654    -0.32610
C427        C  0.61142299  0.03088676  0.85988714     0.36640
C428        C  0.57654950  0.99847356  0.84326567    -0.05540
C429        C  0.54128019  0.96539998  0.85893253    -0.32510
C430        C  0.54111725  0.96380452  0.89067029     0.36550
H431        H  0.63624874  0.05665705  0.90407277     0.16920
O432        O  0.64549210  0.06457417  0.84532877    -0.60010
H433        H  0.51416500  0.94022070  0.84650467     0.16930
O434        O  0.50582955  0.93142781  0.90525360    -0.60100
H435        H  0.52302256  0.89648916  0.90601267     0.43930
H436        H  0.67956242  0.04573226  0.84462037     0.43880
C437        C  0.57114368  0.00122110  0.59342155    -0.05180
C438        C  0.60545895  0.03501105  0.60918456    -0.32610
C439        C  0.60680787  0.03464572  0.64082336     0.36640
C440        C  0.57218114  0.00147778  0.65704688    -0.05540
C441        C  0.53675767  0.96883851  0.64126950    -0.32510
C442        C  0.53672491  0.96784634  0.60962399     0.36550
H443        H  0.63207127  0.06090931  0.59692776     0.16920
O444        O  0.64069508  0.06818888  0.65570931    -0.60010
H445        H  0.50982568  0.94325101  0.65350862     0.16930
O446        O  0.50165477  0.93557640  0.59471420    -0.60100
H447        H  0.51857010  0.90048201  0.59421365     0.43930
H448        H  0.67509727  0.04991115  0.65584865     0.43880
C449        C  0.07605634  0.22765544  0.98883685    -0.05180
C450        C  0.03830867  0.25680660  0.97286477    -0.32610
C451        C  0.03599319  0.31179758  0.97584354     0.36640
C452        C  0.07224460  0.33859899  0.99467884    -0.05540
C453        C  0.11046666  0.30976299  0.51016071    -0.32510
C454        C  0.11225406  0.25488972  0.50771333     0.36550
H455        H  0.01026111  0.23695822  0.95819744     0.16920
O456        O  0.99939940  0.33914747  0.95941496    -0.60010
H457        H  0.13821729  0.32973576  0.52499241     0.16930
O458        O  0.14704276  0.22802889  0.52567716    -0.60100
H459        H  0.18210068  0.23352375  0.51621268     0.43930
H460        H  0.96650279  0.33717078  0.97149108     0.43880
C461        C  0.07180769  0.66226172  0.99478616    -0.05180
C462        C  0.03459186  0.68666311  0.97597774    -0.32610
C463        C  0.03492408  0.74157834  0.97193893     0.36640
C464        C  0.07267366  0.77297859  0.98712173    -0.05540
C465        C  0.11016027  0.74809461  0.50565301    -0.32510
C466        C  0.11027310  0.69342545  0.50929177     0.36550
H467        H  0.00564888  0.66298907  0.96394604     0.16920
O468        O  0.99984711  0.76382149  0.95215790    -0.60010
H469        H  0.13878183  0.77127754  0.51823171     0.16930
O470        O  0.14649232  0.67113417  0.52835694    -0.60100
H471        H  0.17921741  0.66819936  0.51622023     0.43930
H472        H  0.96452276  0.75811369  0.96126053     0.43880
C473        C  0.07372408  0.50077381  0.84306251    -0.05180
C474        C  0.11124428  0.53078058  0.85890832    -0.32610
C475        C  0.11245377  0.53005586  0.89054839     0.36640
C476        C  0.07451381  0.50049406  0.90665042    -0.05540
C477        C  0.03645826  0.47115589  0.89068959    -0.32510
C478        C  0.03623257  0.47072587  0.85907210     0.36550
H479        H  0.14011181  0.55421612  0.84670654     0.16920
O480        O  0.14940329  0.56005128  0.90551083    -0.60010
H481        H  0.00712798  0.44811008  0.90277469     0.16930
O482        O  0.99874663  0.44152316  0.84401675    -0.60100
H483        H  0.96970300  0.46639793  0.83979042     0.43930
H484        H  0.18171255  0.53831456  0.90579583     0.43880
C485        C  0.06946094  0.50155817  0.59328158    -0.05180
C486        C  0.11703126  0.50977516  0.60916012    -0.32610
C487        C  0.11815237  0.51050952  0.64087444     0.36640
C488        C  0.07142996  0.50282240  0.65735270    -0.05540
C489        C  0.02396826  0.49433964  0.64184788    -0.32510
C490        C  0.02253475  0.49416625  0.61009775     0.36550
H491        H  0.15365294  0.51578735  0.59700453     0.16920
O492        O  0.16514128  0.51871686  0.65558467    -0.60010
H493        H  0.98778870  0.48811746  0.65442805     0.16930
O494        O  0.97519387  0.48556016  0.59587391    -0.60100
H495        H  0.95843010  0.52068731  0.59475519     0.43930
H496        H  0.17921748  0.48299698  0.65946915     0.43880
C497        C  0.23458133  0.49988738  0.75468109    -0.05180
C498        C  0.26320495  0.46295248  0.73806839    -0.32610
C499        C  0.31805628  0.46117659  0.74016652     0.36640
C500        C  0.34544894  0.49543072  0.76015641    -0.05540
C501        C  0.31643451  0.53178650  0.77729356    -0.32510
C502        C  0.26146239  0.53428911  0.77458645     0.36550
H503        H  0.24307491  0.43647366  0.72255355     0.16920
O504        O  0.34454282  0.42730432  0.72144399    -0.60010
H505        H  0.33633994  0.55853037  0.79271620     0.16930
O506        O  0.23435592  0.57013918  0.79171524    -0.60100
H507        H  0.22453253  0.55101473  0.81047822     0.43930
H508        H  0.35351128  0.44837269  0.70323040     0.43880
C509        C  0.57220731  0.16142959  0.74431400    -0.05180
C510        C  0.60949382  0.18588894  0.72534028    -0.32610
C511        C  0.60914568  0.24063966  0.72063962     0.36640
C512        C  0.57135545  0.27204245  0.73540323    -0.05540
C513        C  0.53362309  0.24700740  0.75402271    -0.32510
C514        C  0.53344326  0.19238444  0.75821254     0.36550
H515        H  0.63857468  0.16232602  0.71366553     0.16920
O516        O  0.64427324  0.26260105  0.70058964    -0.60010
H517        H  0.50486477  0.27002849  0.76628414     0.16930
O518        O  0.49687360  0.17003241  0.77723848    -0.60100
H519        H  0.46447264  0.16595590  0.76486066     0.43930
H520        H  0.67965276  0.25716959  0.70958164     0.43880
C521        C  0.57223036  0.72680860  0.73964196    -0.05180
C522        C  0.53972736  0.75236366  0.76075593    -0.32610
C523        C  0.54124580  0.80708768  0.76411445     0.36640
C524        C  0.57560535  0.83756517  0.74620163    -0.05540
C525        C  0.60812731  0.81237122  0.72498631    -0.32510
C526        C  0.60628614  0.75738319  0.72143394     0.36550
H527        H  0.51408273  0.72959283  0.77546804     0.16920
O528        O  0.50983057  0.83031846  0.78551061    -0.60010
H529        H  0.63417623  0.83549628  0.71070089     0.16930
O530        O  0.63742406  0.73411915  0.69995273    -0.60100
H531        H  0.61446028  0.72989925  0.68192425     0.43930
H532        H  0.53231137  0.83377816  0.80379487     0.43880
C533        C  0.80006354  0.50181361  0.76412785    -0.05180
C534        C  0.82588124  0.54473433  0.75008871    -0.32610
C535        C  0.88062721  0.54619676  0.74669354     0.36640
C536        C  0.91114270  0.50350513  0.75652135    -0.05540
C537        C  0.88602073  0.46118229  0.77125049    -0.32510
C538        C  0.83116840  0.46018377  0.77536894     0.36550
H539        H  0.80351665  0.57687838  0.74056333     0.16920
O540        O  0.90349815  0.58845630  0.73231176    -0.60010
H541        H  0.90909056  0.42885421  0.78003845     0.16930
O542        O  0.80893781  0.41958483  0.79155805    -0.60100
H543        H  0.81568665  0.38718161  0.77960611     0.43930
H544        H  0.90744790  0.61594013  0.74815989     0.43880
loop_ 
_geom_bond_atom_site_label_1 
_geom_bond_atom_site_label_2 
_geom_bond_distance 
_geom_bond_site_symmetry_2 
_ccdc_geom_bond_type 
C1            C2   1.429       .  A
C1            C6   1.430       .  A
C1          C261   1.496       .  S
C2            C3   1.399       .  A
C2            H7   1.078       .  S
C3            C4   1.398       .  A
C3           C21   1.505       .  S
C4            C5   1.395       .  A
C4            H8   1.060       .  S
C5            C6   1.402       .  A
C5           C14   1.505       .  S
C6            H9   1.083       .  S
C10          C11   1.424       .  A
C10          C15   1.425       .  A
C10         C249   1.484       .  S
C11          C12   1.400       .  A
C11          H16   1.083       .  S
C12          C13   1.399       .  A
C12          C30   1.502       .  S
C13          C14   1.399       .  A
C13          H17   1.062       .  S
C14          C15   1.404       .  A
C15          H18   1.082       .  S
C19          C20   1.431       .  A
C19          C24   1.428       .  A
C19         C240   1.492       .  S
C20          C21   1.403       .  A
C20          H25   1.080       .  S
C21          C22   1.392       .  A
C22          C23   1.391       .  A
C22          H26   1.057       .  S
C23          C24   1.400       .  A
C23          C32   1.500       .  S
C24          H27   1.083       .  S
C28          C29   1.427       .  A
C28          C33   1.424       .  A
C28         C228   1.487       .  S
C29          C30   1.403       .  A
C29          H34   1.082       .  S
C30          C31   1.396       .  A
C31          C32   1.397       .  A
C31          H35   1.061       .  S
C32          C33   1.399       .  A
C33          H36   1.083       .  S
O37          C47   1.280       .  A
O37        Cu317   2.022   1_554  S
O38          C48   1.277       .  A
O38         Cu45   1.997       .  S
O39          C49   1.277       .  A
O39         Cu45   2.006       .  S
O40          C50   1.278       .  A
O40         Cu45   2.010       .  S
O41          C50   1.277       .  A
O41         Cu46   2.002       .  S
O42          C49   1.278       .  A
O42         Cu46   2.008       .  S
O43          C48   1.277       .  A
O43         Cu46   2.003       .  S
O44          C47   1.278       .  A
O44        Cu318   2.008       .  S
Cu45        O309   2.022       .  S
Cu45        Cu46   2.372       .  S
Cu46        O316   2.008       .  S
C47         C213   1.491       .  S
C48         C204   1.470       .  S
C49         C180   1.475       .  S
C50         C189   1.476       .  S
O51          C61   1.277       .  A
O51         Cu59   2.011       .  S
O52          C62   1.276       .  A
O52         Cu59   1.999       .  S
O53          C63   1.277       .  A
O53         Cu59   2.001   1_655  S
O54          C64   1.278       .  A
O54         Cu59   2.009       .  S
O55          C64   1.277       .  A
O55         Cu60   2.002       .  S
O56          C63   1.279       .  A
O56         Cu60   2.011   1_655  S
O57          C62   1.276       .  A
O57         Cu60   2.000       .  S
O58          C61   1.278       .  A
O58         Cu60   2.018       .  S
Cu59        Cu60   2.376       .  S
C61         C216   1.471       .  S
C62         C201   1.464       .  S
C63         C264   1.480       .  S
C64         C225   1.473       .  S
O65          C75   1.278       .  A
O65        Cu345   2.007       .  S
O66          C76   1.278   1_545  A
O66         Cu73   2.010       .  S
O67          C77   1.279       .  A
O67         Cu73   2.014       .  S
O68          C78   1.276   1_545  A
O68         Cu73   2.003       .  S
O69          C78   1.278       .  A
O69         Cu74   2.017       .  S
O70          C77   1.277   1_565  A
O70         Cu74   2.005       .  S
O71          C76   1.279       .  A
O71         Cu74   2.021       .  S
O72          C75   1.276   1_565  A
O72        Cu346   1.994       .  S
Cu73        O337   2.007       .  S
Cu73        Cu74   2.376   1_545  S
Cu74        O344   1.994       .  S
C75         C165   1.468       .  S
C76         C153   1.479       .  S
C77         C141   1.478       .  S
C78         C129   1.471       .  S
O79          C89   1.276       .  A
O79         Cu87   1.995       .  S
O80          C90   1.279   1_545  A
O80         Cu87   2.021       .  S
O81          C91   1.279       .  A
O81         Cu87   2.018   1_565  S
O82          C92   1.278       .  A
O82         Cu87   2.006       .  S
O83          C92   1.279       .  A
O83         Cu88   2.012   1_545  S
O84          C91   1.277       .  A
O84         Cu88   2.000       .  S
O85          C90   1.278       .  A
O85         Cu88   2.010       .  S
O86          C89   1.278   1_565  A
O86         Cu88   2.007       .  S
Cu87        Cu88   2.375   1_545  S
C89         C168   1.469       .  S
C90         C156   1.480       .  S
C91         C252   1.475       .  S
C92         C237   1.478       .  S
C93          C94   1.426       .  A
C93          C98   1.429       .  A
C93         C192   1.488       .  S
C94          C95   1.399       .  A
C94          H99   1.083       .  S
C95          C96   1.396       .  A
C95         C104   1.503       .  S
C96          C97   1.399       .  A
C96         H100   1.060       .  S
C97          C98   1.403       .  A
C97         C124   1.508   1_455  S
C98         H101   1.080   1_455  S
C102        C103   1.427   1_545  A
C102        C107   1.425       .  A
C102        C144   1.491       .  S
C103        C104   1.403       .  A
C103        H108   1.080       .  S
C104        C105   1.397   1_565  A
C105        C106   1.396       .  A
C105        H109   1.063       .  S
C106        C107   1.400       .  A
C106        C113   1.500       .  S
C107        H110   1.083       .  S
C111        C112   1.424       .  A
C111        C116   1.427       .  A
C111        C177   1.487       .  S
C112        C113   1.399       .  A
C112        H117   1.083       .  S
C113        C114   1.395       .  A
C114        C115   1.398       .  A
C114        H118   1.060       .  S
C115        C116   1.404       .  A
C115        C122   1.505   1_455  S
C116        H119   1.082   1_455  S
C120        C121   1.425       .  A
C120        C125   1.426   1_545  A
C120        C132   1.478       .  S
C121        C122   1.400       .  A
C121        H126   1.083       .  S
C122        C123   1.395   1_655  A
C123        C124   1.396   1_445  A
C123        H127   1.057       .  S
C124        C125   1.405       .  A
C125        H128   1.083       .  S
C129        C130   1.398   1_565  A
C129        C406   1.410       .  A
C130        C131   1.397       .  A
C130        H135   1.084       .  S
C131        C132   1.412       .  A
C131        O136   1.372       .  S
C132        C405   1.402   1_545  A
C133        C134   1.404       .  A
C133        C404   1.402   1_565  A
C133        H137   1.083       .  S
C134        C401   1.410       .  A
C134        O138   1.372       .  S
O136        H140   0.992       .  S
O138        H139   0.992       .  S
C141        C146   1.405       .  A
C141        C414   1.406   1_545  A
C142        C143   1.405       .  A
C142        C413   1.406   1_565  A
C142        H147   1.084       .  S
C143        C416   1.411   1_565  A
C143        O148   1.372       .  S
C144        C145   1.409       .  A
C144        C415   1.411   1_545  A
C145        C146   1.398       .  A
C145        H149   1.083       .  S
C146        O150   1.372       .  S
O148        H152   0.992       .  S
O150        H151   0.992       .  S
C153        C154   1.404   1_565  A
C153        C158   1.408       .  A
C154        C155   1.403       .  A
C154        H159   1.084       .  S
C155        C156   1.409   1_545  A
C155        O160   1.371       .  S
C156        C157   1.405       .  A
C157        C158   1.403       .  A
C157        H161   1.084       .  S
C158        O162   1.372       .  S
O160        H164   0.992       .  S
O162        H163   0.992       .  S
C165        C166   1.401       .  A
C165        C170   1.408   1_545  A
C166        C167   1.398       .  A
C166        H171   1.084       .  S
C167        C168   1.408       .  A
C167        O172   1.372       .  S
C168        C169   1.402   1_545  A
C169        C170   1.398       .  A
C169        H173   1.084       .  S
C170        O174   1.372       .  S
O172        H176   0.992       .  S
O174        H175   0.992       .  S
C177        C178   1.405       .  A
C177        C454   1.416       .  A
C178        C179   1.403       .  A
C178        H183   1.083       .  S
C179        C180   1.410       .  A
C179        O184   1.372   1_455  S
C180        C453   1.398       .  A
C181        C182   1.397       .  A
C181        C452   1.398   1_554  A
C181        H185   1.084       .  S
C182        C449   1.416   1_554  A
C182        O186   1.373       .  S
O184        H188   0.992       .  S
O186        H187   0.992       .  S
C189        C190   1.406       .  A
C189        C466   1.405       .  A
C190        C191   1.405       .  A
C190        H195   1.084       .  S
C191        C192   1.410       .  A
C191        O196   1.372   1_455  S
C192        C465   1.408       .  A
C193        C194   1.396       .  A
C193        C464   1.408   1_554  A
C193        H197   1.084       .  S
C194        C461   1.405   1_554  A
C194        O198   1.372       .  S
O196        H200   0.992       .  S
O198        H199   0.992       .  S
C201        C202   1.401       .  A
C201        C206   1.406       .  A
C202        C203   1.398       .  A
C202        H207   1.084       .  S
C203        C204   1.409       .  A
C203        O208   1.372       .  S
C204        C205   1.404       .  A
C205        C206   1.397       .  A
C205        H209   1.084       .  S
C206        O210   1.372   1_455  S
O208        H212   0.992       .  S
O210        H211   0.992       .  S
C213        C214   1.410       .  A
C213        C218   1.415       .  A
C214        C215   1.401       .  A
C214        H219   1.083       .  S
C215        C216   1.404       .  A
C215        O220   1.372       .  S
C216        C217   1.400       .  A
C217        C218   1.403       .  A
C217        H221   1.084   1_455  S
C218        O222   1.371   1_455  S
O220        H224   0.992       .  S
O222        H223   0.992       .  S
C225        C226   1.398       .  A
C225        C230   1.410       .  A
C226        C227   1.396       .  A
C226        H231   1.084       .  S
C227        C228   1.416       .  A
C227        O232   1.372       .  S
C228        C229   1.406       .  A
C229        C230   1.402       .  A
C229        H233   1.083       .  S
C230        O234   1.372       .  S
O232        H236   0.992       .  S
O234        H235   0.992       .  S
C237        C238   1.405       .  A
C237        C242   1.405       .  A
C238        C239   1.405       .  A
C238        H243   1.084       .  S
C239        C240   1.411       .  A
C239        O244   1.372       .  S
C240        C241   1.410       .  A
C241        C242   1.398       .  A
C241        H245   1.083       .  S
C242        O246   1.372       .  S
O244        H248   0.992       .  S
O246        H247   0.992       .  S
C249        C250   1.407       .  A
C249        C254   1.409       .  A
C250        C251   1.396       .  A
C250        H255   1.084       .  S
C251        C252   1.405       .  A
C251        O256   1.372       .  S
C252        C253   1.406       .  A
C253        C254   1.404       .  A
C253        H257   1.084       .  S
C254        O258   1.371       .  S
O256        H260   0.992       .  S
O258        H259   0.992       .  S
C261        C262   1.411       .  A
C261        C266   1.414       .  A
C262        C263   1.397       .  A
C262        H267   1.083       .  S
C263        C264   1.406       .  A
C263        O268   1.372       .  S
C264        C265   1.405       .  A
C265        C266   1.404       .  A
C265        H269   1.084       .  S
C266        O270   1.372       .  S
O268        H272   0.992       .  S
O270        H271   0.993       .  S
C273        C274   1.429       .  A
C273        C278   1.430       .  A
C273        C533   1.496       .  S
C274        C275   1.399       .  A
C274        H279   1.078       .  S
C275        C276   1.398       .  A
C275        C293   1.505       .  S
C276        C277   1.395       .  A
C276        H280   1.060       .  S
C277        C278   1.402       .  A
C277        C286   1.505       .  S
C278        H281   1.083       .  S
C282        C283   1.424       .  A
C282        C287   1.425       .  A
C282        C521   1.484       .  S
C283        C284   1.400       .  A
C283        H288   1.083       .  S
C284        C285   1.399       .  A
C284        C302   1.502       .  S
C285        C286   1.399       .  A
C285        H289   1.062       .  S
C286        C287   1.404       .  A
C287        H290   1.082       .  S
C291        C292   1.431       .  A
C291        C296   1.428       .  A
C291        C512   1.492       .  S
C292        C293   1.403       .  A
C292        H297   1.080       .  S
C293        C294   1.392       .  A
C294        C295   1.391       .  A
C294        H298   1.057       .  S
C295        C296   1.400       .  A
C295        C304   1.501       .  S
C296        H299   1.083       .  S
C300        C301   1.427       .  A
C300        C305   1.424       .  A
C300        C500   1.487       .  S
C301        C302   1.403       .  A
C301        H306   1.082       .  S
C302        C303   1.396       .  A
C303        C304   1.397       .  A
C303        H307   1.061       .  S
C304        C305   1.399       .  A
C305        H308   1.083       .  S
O309        C319   1.280       .  A
O310        C320   1.277       .  A
O310       Cu317   1.997       .  S
O311        C321   1.277       .  A
O311       Cu317   2.006       .  S
O312        C322   1.278       .  A
O312       Cu317   2.010       .  S
O313        C322   1.277       .  A
O313       Cu318   2.002   1_556  S
O314        C321   1.278       .  A
O314       Cu318   2.008   1_556  S
O315        C320   1.277       .  A
O315       Cu318   2.003   1_556  S
O316        C319   1.278       .  A
Cu317      Cu318   2.372   1_556  S
C319        C485   1.491       .  S
C320        C476   1.470       .  S
C321        C452   1.475       .  S
C322        C461   1.476       .  S
O323        C333   1.277       .  A
O323       Cu331   2.011       .  S
O324        C334   1.276       .  A
O324       Cu331   1.999       .  S
O325        C335   1.277       .  A
O325       Cu331   2.001   1_655  S
O326        C336   1.278       .  A
O326       Cu331   2.009       .  S
O327        C336   1.277       .  A
O327       Cu332   2.002       .  S
O328        C335   1.279       .  A
O328       Cu332   2.011   1_655  S
O329        C334   1.276       .  A
O329       Cu332   2.000       .  S
O330        C333   1.278       .  A
O330       Cu332   2.018       .  S
Cu331      Cu332   2.376       .  S
C333        C488   1.471       .  S
C334        C473   1.464       .  S
C335        C536   1.480       .  S
C336        C497   1.473       .  S
O337        C347   1.278       .  A
O338        C348   1.278   1_545  A
O338       Cu345   2.010   1_556  S
O339        C349   1.279       .  A
O339       Cu345   2.014       .  S
O340        C350   1.276   1_545  A
O340       Cu345   2.003       .  S
O341        C350   1.278       .  A
O341       Cu346   2.017       .  S
O342        C349   1.277   1_565  A
O342       Cu346   2.005       .  S
O343        C348   1.279       .  A
O343       Cu346   2.021   1_556  S
O344        C347   1.276   1_565  A
Cu345      Cu346   2.376   1_545  S
C347        C437   1.468       .  S
C348        C425   1.479       .  S
C349        C413   1.478       .  S
C350        C401   1.471       .  S
O351        C361   1.276       .  A
O351       Cu359   1.995       .  S
O352        C362   1.279   1_545  A
O352       Cu359   2.021       .  S
O353        C363   1.279       .  A
O353       Cu359   2.018   1_565  S
O354        C364   1.278       .  A
O354       Cu359   2.006       .  S
O355        C364   1.279       .  A
O355       Cu360   2.012   1_545  S
O356        C363   1.277       .  A
O356       Cu360   2.000       .  S
O357        C362   1.278       .  A
O357       Cu360   2.010       .  S
O358        C361   1.278   1_565  A
O358       Cu360   2.007       .  S
Cu359      Cu360   2.375   1_545  S
C361        C440   1.469       .  S
C362        C428   1.480       .  S
C363        C524   1.475       .  S
C364        C509   1.478       .  S
C365        C366   1.426       .  A
C365        C370   1.429       .  A
C365        C464   1.488       .  S
C366        C367   1.399   1_556  A
C366        H371   1.083       .  S
C367        C368   1.396       .  A
C367        C376   1.503   1_554  S
C368        C369   1.399       .  A
C368        H372   1.060       .  S
C369        C370   1.403   1_554  A
C369        C396   1.508   1_454  S
C370        H373   1.080   1_455  S
C374        C375   1.427   1_545  A
C374        C379   1.425       .  A
C374        C416   1.491       .  S
C375        C376   1.403   1_554  A
C375        H380   1.080       .  S
C376        C377   1.397   1_565  A
C377        C378   1.396       .  A
C377        H381   1.063       .  S
C378        C379   1.400   1_556  A
C378        C385   1.500   1_556  S
C379        H382   1.083       .  S
C383        C384   1.424       .  A
C383        C388   1.427       .  A
C383        C449   1.487       .  S
C384        C385   1.399   1_556  A
C384        H389   1.083       .  S
C385        C386   1.395       .  A
C386        C387   1.398       .  A
C386        H390   1.060       .  S
C387        C388   1.404   1_554  A
C387        C394   1.505   1_454  S
C388        H391   1.082   1_455  S
C392        C393   1.425       .  A
C392        C397   1.426   1_545  A
C392        C404   1.478       .  S
C393        C394   1.400   1_554  A
C393        H398   1.083       .  S
C394        C395   1.395   1_655  A
C395        C396   1.396   1_445  A
C395        H399   1.057       .  S
C396        C397   1.405   1_556  A
C397        H400   1.083       .  S
C401        C402   1.398   1_564  A
C402        C403   1.397       .  A
C402        H407   1.084       .  S
C403        C404   1.412   1_556  A
C403        O408   1.372       .  S
C405        C406   1.404       .  A
C405        H409   1.083       .  S
C406        O410   1.372       .  S
O408        H412   0.992       .  S
O410        H411   0.992       .  S
C413        C418   1.405   1_554  A
C414        C415   1.405       .  A
C414        H419   1.084       .  S
C415        O420   1.372       .  S
C416        C417   1.409   1_554  A
C417        C418   1.398       .  A
C417        H421   1.083       .  S
C418        O422   1.372       .  S
O420        H424   0.992       .  S
O422        H423   0.992       .  S
C425        C426   1.404   1_565  A
C425        C430   1.408       .  A
C426        C427   1.403       .  A
C426        H431   1.084       .  S
C427        C428   1.409   1_545  A
C427        O432   1.371       .  S
C428        C429   1.405       .  A
C429        C430   1.403       .  A
C429        H433   1.084       .  S
C430        O434   1.372       .  S
O432        H436   0.992       .  S
O434        H435   0.992       .  S
C437        C438   1.401       .  A
C437        C442   1.408   1_545  A
C438        C439   1.398       .  A
C438        H443   1.084       .  S
C439        C440   1.408       .  A
C439        O444   1.372       .  S
C440        C441   1.402   1_545  A
C441        C442   1.398       .  A
C441        H445   1.084       .  S
C442        O446   1.372       .  S
O444        H448   0.992       .  S
O446        H447   0.992       .  S
C449        C450   1.405       .  A
C450        C451   1.403       .  A
C450        H455   1.083       .  S
C451        C452   1.410       .  A
C451        O456   1.372   1_455  S
C453        C454   1.397       .  A
C453        H457   1.084       .  S
C454        O458   1.373       .  S
O456        H460   0.992       .  S
O458        H459   0.992       .  S
C461        C462   1.406       .  A
C462        C463   1.405       .  A
C462        H467   1.084       .  S
C463        C464   1.410       .  A
C463        O468   1.372   1_455  S
C465        C466   1.396       .  A
C465        H469   1.084       .  S
C466        O470   1.372       .  S
O468        H472   0.992       .  S
O470        H471   0.992       .  S
C473        C474   1.401       .  A
C473        C478   1.406       .  A
C474        C475   1.398       .  A
C474        H479   1.084       .  S
C475        C476   1.409       .  A
C475        O480   1.372       .  S
C476        C477   1.404       .  A
C477        C478   1.397       .  A
C477        H481   1.084       .  S
C478        O482   1.372   1_455  S
O480        H484   0.992       .  S
O482        H483   0.992       .  S
C485        C486   1.410       .  A
C485        C490   1.415       .  A
C486        C487   1.401       .  A
C486        H491   1.083       .  S
C487        C488   1.404       .  A
C487        O492   1.372       .  S
C488        C489   1.400       .  A
C489        C490   1.403       .  A
C489        H493   1.084   1_455  S
C490        O494   1.371   1_455  S
O492        H496   0.992       .  S
O494        H495   0.992       .  S
C497        C498   1.398       .  A
C497        C502   1.410       .  A
C498        C499   1.396       .  A
C498        H503   1.084       .  S
C499        C500   1.416       .  A
C499        O504   1.372       .  S
C500        C501   1.406       .  A
C501        C502   1.402       .  A
C501        H505   1.083       .  S
C502        O506   1.372       .  S
O504        H508   0.992       .  S
O506        H507   0.992       .  S
C509        C510   1.405       .  A
C509        C514   1.405       .  A
C510        C511   1.405       .  A
C510        H515   1.084       .  S
C511        C512   1.411       .  A
C511        O516   1.372       .  S
C512        C513   1.410       .  A
C513        C514   1.398       .  A
C513        H517   1.083       .  S
C514        O518   1.372       .  S
O516        H520   0.992       .  S
O518        H519   0.992       .  S
C521        C522   1.407       .  A
C521        C526   1.409       .  A
C522        C523   1.396       .  A
C522        H527   1.084       .  S
C523        C524   1.405       .  A
C523        O528   1.372       .  S
C524        C525   1.406       .  A
C525        C526   1.404       .  A
C525        H529   1.084       .  S
C526        O530   1.371       .  S
O528        H532   0.992       .  S
O530        H531   0.992       .  S
C533        C534   1.411       .  A
C533        C538   1.414       .  A
C534        C535   1.397       .  A
C534        H539   1.083       .  S
C535        C536   1.406       .  A
C535        O540   1.372       .  S
C536        C537   1.405       .  A
C537        C538   1.404       .  A
C537        H541   1.084       .  S
C538        O542   1.372       .  S
O540        H544   0.992       .  S
O542        H543   0.993       .  S
