geometry optimzed in LAMMPS
_audit_creation_date              2020-12-01 
_audit_creation_method            'lammps2cif' 
_symmetry_space_group_name_H-M    'P1' 
_symmetry_Int_Tables_number       1 
_symmetry_cell_setting            triclinic 
loop_ 
_symmetry_equiv_pos_as_xyz 
  x,y,z 
_cell_length_a                    19.01388564 
_cell_length_b                    19.90558130156149 
_cell_length_c                    19.838655248939844 
_cell_angle_alpha                 92.29916131129694 
_cell_angle_beta                  87.90762796416021 
_cell_angle_gamma                 90.32310129731002 
loop_ 
_atom_site_label 
_atom_site_type_symbol 
_atom_site_fract_x 
_atom_site_fract_y 
_atom_site_fract_z 
_atom_site_charge 
C1          C  0.16045075  0.12735443  0.20865760     0.86400
C2          C  0.19407618  0.09033934  0.26559806    -0.53800
C3          C  0.23012992  0.12892201  0.30904510     0.09400
C4          C  0.21997153  0.20802588  0.29537775     0.20300
C5          C  0.10796169  0.17988670  0.24407723    -0.54500
C6          C  0.13639254  0.22403380  0.29086981     0.09500
C7          C  0.22246733  0.16811190  0.17950063    -0.54100
C8          C  0.25072808  0.21320729  0.22124379     0.10000
H9          H  0.20300157  0.03758472  0.26559928     0.14500
H10         H  0.24747020  0.24217932  0.33139406     0.00300
H11         H  0.05465180  0.18539429  0.22855780     0.14800
H12         H  0.24227135  0.16338981  0.12735842     0.14600
C13         C  0.09838719  0.29213463  0.32397098     0.29900
C14         C  0.10180946  0.41977853  0.38838348     0.29900
C15         C  0.12899687  0.35074096  0.28409912    -0.06300
C16         C  0.01976342  0.32425094  0.34476778    -0.07000
C17         C  0.13034039  0.29955097  0.39292910    -0.06900
C18         C  0.13023741  0.41418202  0.31604462    -0.06300
C19         C  0.02204229  0.38941532  0.37930146    -0.07000
C20         C  0.13535268  0.36354583  0.42296837    -0.06900
C21         C  0.12338633  0.45927343  0.26566695    -0.32300
N22         N  0.12661891  0.42819140  0.20411868     0.14200
C23         C  0.12464220  0.36178681  0.21600748    -0.32300
H24         H  0.11882872  0.32316709  0.17738515     0.16100
C25         C  0.94967262  0.40736787  0.39574745    -0.31300
N26         N  0.90218754  0.35943418  0.37229735     0.12900
C27         C  0.94516682  0.31011369  0.34078790    -0.31300
C28         C  0.13259907  0.35664023  0.49113177    -0.31600
N29         N  0.12700357  0.29167059  0.50443487     0.13400
H30         H  0.12070044  0.39682482  0.52726938     0.16100
C31         C  0.12141412  0.25676052  0.44538878    -0.31600
H32         H  0.09950084  0.20679187  0.44103948     0.16100
H33         H  0.92380638  0.26631048  0.31619658     0.16100
H34         H  0.10681541  0.51026228  0.27299493     0.16100
H35         H  0.93293896  0.45330387  0.42226136     0.16100
C36         C  0.10641378  0.59337692  0.48749753     0.86400
C37         C  0.16632204  0.62642920  0.44815283    -0.53800
C38         C  0.22162545  0.58784851  0.43071620     0.09400
C39         C  0.20707052  0.51070626  0.45088345     0.20300
C40         C  0.08141937  0.52973771  0.45021162    -0.54500
C41         C  0.12948767  0.48722196  0.42572487     0.09500
C42         C  0.14397677  0.56220167  0.54972479    -0.54100
C43         C  0.19910214  0.51714664  0.53131978     0.10000
H44         H  0.16572554  0.67943157  0.43737271     0.14500
H45         H  0.24827550  0.47490308  0.43216973     0.00300
H46         H  0.02611676  0.51831443  0.44494388     0.14800
H47         H  0.12809729  0.57389213  0.60193595     0.14600
C48         C  0.40429158  0.06217238  0.41938211     0.29900
C49         C  0.29098128  0.09371017  0.34703817     0.29900
C50         C  0.42114894  0.09247963  0.35143993    -0.06300
C51         C  0.36228902  0.99891055  0.39821746    -0.07000
C52         C  0.34625315  0.10497409  0.45539491    -0.06900
C53         C  0.36467856  0.11636105  0.31910527    -0.06300
C54         C  0.30257099  0.01154389  0.35962218    -0.07000
C55         C  0.29041580  0.12204814  0.41780293    -0.06900
C56         C  0.39387157  0.17173186  0.28727562    -0.32300
N57         N  0.46539639  0.16769395  0.28130777     0.14200
C58         C  0.48218412  0.11804876  0.32227064    -0.32300
H59         H  0.53476608  0.10272835  0.33271187     0.16100
C60         C  0.27613190  0.94330367  0.34766571    -0.31300
N61         N  0.31646703  0.89485383  0.37804782     0.12900
C62         C  0.36931727  0.93020383  0.40727015    -0.31300
C63         C  0.23558661  0.13788973  0.46162431    -0.31600
N64         N  0.25682867  0.13538354  0.52520952     0.13400
H65         H  0.18199593  0.14125057  0.44834660     0.16100
C66         C  0.32191618  0.10904389  0.52208373    -0.31600
H67         H  0.34769829  0.09015882  0.56490024     0.16100
H68         H  0.41206941  0.90641377  0.43128571     0.16100
H69         H  0.36659657  0.21787235  0.28383126     0.16100
H70         H  0.23143984  0.93051112  0.31760380     0.16100
C71         C  0.61911916  0.20894103  0.15838235     0.86400
C72         C  0.64906215  0.25514075  0.21574706    -0.53800
C73         C  0.60287661  0.28992337  0.25558674     0.09400
C74         C  0.52447143  0.27877778  0.22744659     0.20300
C75         C  0.56403840  0.16558213  0.19656763    -0.54500
C76         C  0.51451627  0.20140169  0.23451925     0.09500
C77         C  0.57422762  0.25177370  0.11319030    -0.54100
C78         C  0.52354540  0.28920149  0.14533706     0.10000
H79         H  0.70243587  0.25244362  0.23143182     0.14500
H80         H  0.48328407  0.30756015  0.25700754     0.00300
H81         H  0.56455697  0.11137048  0.19633523     0.14800
H82         H  0.57635908  0.24662032  0.05862983     0.14600
C83         C  0.13135185  0.19602635  0.66475488     0.86400
C84         C  0.09868814  0.23765442  0.60934181    -0.53800
C85         C  0.14546408  0.26439805  0.56643154     0.09400
C86         C  0.22049990  0.25037772  0.58135299     0.20300
C87         C  0.18238409  0.14594437  0.62711797    -0.54500
C88         C  0.22484288  0.17381740  0.58054485     0.09500
C89         C  0.18304398  0.24587713  0.70106966    -0.54100
C90         C  0.23056276  0.27442201  0.65690127     0.10000
H91         H  0.04312324  0.24286955  0.60139457     0.14500
H92         H  0.25697145  0.27258649  0.54315876     0.00300
H93         H  0.18865020  0.09372187  0.63754833     0.14800
H94         H  0.18573663  0.25494196  0.75493552     0.14600
C95         C  0.62867727  0.38196766  0.45986188     0.29900
C96         C  0.62651859  0.31928153  0.32876141     0.29900
C97         C  0.58757913  0.41240906  0.40566796    -0.06300
C98         C  0.70582426  0.37788592  0.41889239    -0.07000
C99         C  0.60819636  0.30617730  0.45395426    -0.06900
C100        C  0.58069680  0.37944720  0.34417510    -0.06300
C101        C  0.70427800  0.34544017  0.35236849    -0.07000
C102        C  0.60654254  0.27548125  0.38867713    -0.06900
C103        C  0.55468420  0.42455337  0.30178346    -0.32300
N104        N  0.55070242  0.48470967  0.33417290     0.14200
C105        C  0.57724652  0.47852755  0.39510927    -0.32300
H106        H  0.59642017  0.51953678  0.42682867     0.16100
C107        C  0.77689204  0.33559623  0.33101098    -0.31300
N108        N  0.82378441  0.36128645  0.37768739     0.12900
C109        C  0.78017905  0.38626313  0.43114919    -0.31300
C110        C  0.61379050  0.20734850  0.39656025    -0.31600
N111        N  0.61417043  0.19331737  0.46304266     0.13400
H112        H  0.62024085  0.17026493  0.35574749     0.16100
C113        C  0.61660429  0.25385501  0.49729850    -0.31600
H114        H  0.62110478  0.25954185  0.55142064     0.16100
H115        H  0.80032896  0.40665442  0.47802064     0.16100
H116        H  0.55118618  0.41649922  0.24874422     0.16100
H117        H  0.79397333  0.30964098  0.28450765     0.16100
C118        C  0.60210156  0.63690249  0.24272040     0.86400
C119        C  0.53813508  0.68051688  0.27198270    -0.53800
C120        C  0.47763332  0.64219635  0.28145873     0.09400
C121        C  0.48871534  0.56631487  0.25926254     0.20300
C122        C  0.60505647  0.58551168  0.29738390    -0.54500
C123        C  0.54888758  0.54550382  0.30058226     0.09500
C124        C  0.57586890  0.60120384  0.17756667    -0.54100
C125        C  0.51778475  0.56350982  0.18698904     0.10000
H126        H  0.54218651  0.73128375  0.29317089     0.14500
H127        H  0.44352670  0.53148352  0.26665179     0.00300
H128        H  0.65091797  0.57699186  0.32714453     0.14800
H129        H  0.60517562  0.60042538  0.12944558     0.14600
C130        C  0.52757317  0.05066294  0.56391735     0.86400
C131        C  0.48876394  0.02301303  0.50320236    -0.53800
C132        C  0.46658096  0.07083106  0.46321663     0.09400
C133        C  0.49255092  0.14346775  0.48319500     0.20300
C134        C  0.59173267  0.09103654  0.53271631    -0.54500
C135        C  0.57160312  0.13888282  0.48866143     0.09500
C136        C  0.48151071  0.10748107  0.59657754    -0.54100
C137        C  0.46743910  0.15770440  0.55605192     0.10000
H138        H  0.47526957  0.97074912  0.49599346     0.14500
H139        H  0.47571438  0.18329744  0.44966832     0.00300
H140        H  0.64514116  0.08814249  0.54827504     0.14800
H141        H  0.46094237  0.10829814  0.64782468     0.14600
C142        C  0.28910220  0.62267378  0.39777259     0.29900
C143        C  0.41180848  0.65596259  0.32754215     0.29900
C144        C  0.29427337  0.60047556  0.32487628    -0.06300
C145        C  0.30570457  0.70514475  0.38990315    -0.07000
C146        C  0.35839507  0.59421674  0.42377940    -0.06900
C147        C  0.35320044  0.62005394  0.28905963    -0.06300
C148        C  0.36996259  0.71894073  0.35308823    -0.07000
C149        C  0.41904715  0.61792944  0.39375991    -0.06900
C150        C  0.33731939  0.61586409  0.22182963    -0.32300
N151        N  0.27273259  0.58827834  0.21642057     0.14200
C152        C  0.24517294  0.58222766  0.27943582    -0.32300
H153        H  0.19191923  0.57049256  0.29210337     0.16100
C154        C  0.37544079  0.78758057  0.34200038    -0.31300
N155        N  0.31819336  0.82148315  0.36908760     0.12900
C156        C  0.27603910  0.77225124  0.39930930    -0.31300
C157        C  0.47439984  0.59240012  0.42862680    -0.31600
N158        N  0.45122467  0.54241191  0.46922570     0.13400
H159        H  0.52829921  0.60941095  0.42372486     0.16100
C160        C  0.38019215  0.54105682  0.46214713    -0.31600
H161        H  0.34763383  0.50042985  0.47743072     0.16100
H162        H  0.22705067  0.78374122  0.42661051     0.16100
H163        H  0.37020310  0.63314569  0.18051665     0.16100
H164        H  0.41922315  0.81136693  0.31580466     0.16100
C165        C  0.19501346  0.52567548  0.05189484     0.86400
C166        C  0.14029957  0.48393612  0.09337212    -0.53800
C167        C  0.16743766  0.45704977  0.14939957     0.09400
C168        C  0.24536183  0.47320386  0.15781050     0.20300
C169        C  0.22531405  0.57804407  0.10300624    -0.54500
C170        C  0.24882562  0.55014048  0.15915699     0.09500
C171        C  0.25902681  0.48070141  0.03719557    -0.54100
C172        C  0.28311497  0.44966220  0.09055890     0.10000
H173        H  0.08508914  0.47982608  0.08169245     0.14500
H174        H  0.26722310  0.45220258  0.20361989     0.00300
H175        H  0.23014088  0.63153283  0.09571474     0.14800
H176        H  0.29047056  0.48462695  0.99130717     0.14600
C177        C  0.57299586  0.51400925  0.61686788     0.86400
C178        C  0.62272816  0.46588277  0.57115130    -0.53800
C179        C  0.58981116  0.42232151  0.52589076     0.09400
C180        C  0.50449924  0.43426611  0.53391145     0.20300
C181        C  0.52815851  0.55021432  0.56553142    -0.54500
C182        C  0.49297320  0.51075593  0.52105530     0.09500
C183        C  0.51843390  0.46903797  0.65179933    -0.54100
C184        C  0.47993105  0.42920188  0.61187441     0.10000
H185        H  0.67961438  0.47037403  0.57119539     0.14500
H186        H  0.47366522  0.40151044  0.49923014     0.00300
H187        H  0.51619720  0.60231805  0.56556121     0.14800
H188        H  0.50525494  0.47449555  0.70539663     0.14600
C189        C  0.46456562  0.32681021  0.10345939     0.29900
C190        C  0.34730465  0.40485694  0.08650011     0.29900
C191        C  0.47011386  0.40289160  0.12150834    -0.06300
C192        C  0.43919318  0.33226067  0.02367749    -0.07000
C193        C  0.39461999  0.30606192  0.13838709    -0.06900
C194        C  0.41084934  0.44083309  0.11292823    -0.06300
C195        C  0.37718893  0.37153074  0.01915641    -0.07000
C196        C  0.33812905  0.34687546  0.13249012    -0.06900
C197        C  0.42777779  0.50700175  0.12211281    -0.32300
N198        N  0.49545192  0.51219956  0.13945123     0.14200
C199        C  0.52315046  0.44909380  0.13453685    -0.32300
H200        H  0.57747481  0.43728375  0.14305016     0.16100
C201        C  0.35857672  0.37530189  0.95186174    -0.31300
N202        N  0.40636615  0.34509025  0.90915206     0.12900
C203        C  0.45515279  0.31733316  0.95185520    -0.31300
C204        C  0.28167531  0.31826056  0.16467117    -0.31600
N205        N  0.30068492  0.26143625  0.19354009     0.13400
H206        H  0.22883906  0.33177600  0.15540519     0.16100
C207        C  0.36754547  0.24941779  0.16813704    -0.31600
H208        H  0.39336964  0.20128262  0.16630685     0.16100
H209        H  0.49905566  0.28763780  0.93361460     0.16100
H210        H  0.39325674  0.54836877  0.11521555     0.16100
H211        H  0.31262069  0.39806562  0.93354768     0.16100
C212        C  0.41240125  0.39502541  0.64294761     0.29900
C213        C  0.29389096  0.32042328  0.67128816     0.29900
C214        C  0.40886277  0.32537865  0.60907545    -0.06300
C215        C  0.39976684  0.37660002  0.72289883    -0.07000
C216        C  0.33993936  0.42756918  0.62458294    -0.06900
C217        C  0.35282734  0.28712950  0.62850489    -0.06300
C218        C  0.33725196  0.33903069  0.73618516    -0.07000
C219        C  0.28137848  0.38912827  0.63858626    -0.06900
C220        C  0.37242919  0.22106666  0.61817878    -0.32300
N221        N  0.43283550  0.21831287  0.58073495     0.14200
C222        C  0.45744708  0.28210131  0.57772161    -0.32300
H223        H  0.50897314  0.29607592  0.56033814     0.16100
C224        C  0.33814735  0.31991609  0.80419904    -0.31300
N225        N  0.39816201  0.34205543  0.83558423     0.12900
C226        C  0.43520360  0.37739005  0.78631092    -0.31300
C227        C  0.22300649  0.42151228  0.61264410    -0.31600
N228        N  0.24245665  0.47863108  0.57992747     0.13400
H229        H  0.16977164  0.40372006  0.61932897     0.16100
C230        C  0.31343076  0.48457655  0.59315889    -0.31600
H231        H  0.34462622  0.52864320  0.58330765     0.16100
H232        H  0.48479718  0.40237066  0.79539173     0.16100
H233        H  0.34579658  0.17836261  0.63942699     0.16100
H234        H  0.29699350  0.29123859  0.82905176     0.16100
N235        N  0.95832393  0.05717385  0.80553391    -0.06200
N236        N  0.01985939  0.07141389  0.83130843    -0.58300
N237        N  0.81933479  0.04375993  0.70793825    -0.05900
N238        N  0.79362443  0.06483686  0.65164927    -0.60400
N239        N  0.80834017  0.08866917  0.75739339    -0.05500
N240        N  0.77325410  0.14000537  0.73562511    -0.58300
N241        N  0.96595917  0.00903400  0.75876674    -0.05100
N242        N  0.03208092  0.98928423  0.75363138    -0.60800
C243        C  0.06620180  0.02908443  0.79835825     0.96000
C244        C  0.76396931  0.12484652  0.66893844     0.95800
N245        N  0.75622722  0.84630684  0.73565546    -0.06400
N246        N  0.71901940  0.80055845  0.70273148    -0.58900
N247        N  0.93334442  0.85842586  0.74158365    -0.04500
N248        N  0.99643098  0.83758287  0.71984268    -0.60100
N249        N  0.90280839  0.81384409  0.77976962    -0.06400
N250        N  0.94355680  0.76148444  0.78468536    -0.59100
N251        N  0.78775920  0.88679161  0.69334802    -0.04100
N252        N  0.77380601  0.86737946  0.63115975    -0.60200
Mn253      Mn  0.87712567  0.95055918  0.72302144     1.18400
C254        C  0.73016859  0.81390911  0.63711385     0.98100
C255        C  0.00111971  0.77629544  0.74634444     0.98700
N256        N  0.75229957  0.08834023  0.91250714    -0.06400
N257        N  0.70357229  0.13436006  0.90729719    -0.62700
N258        N  0.87743376  0.01455741  0.99377105    -0.05200
N259        N  0.90554547  0.02278439  0.05305000    -0.63400
N260        N  0.90216451  0.05949708  0.95265342    -0.05900
N261        N  0.94817569  0.09825358  0.98321466    -0.63000
N262        N  0.72977340  0.04331518  0.95496356    -0.04800
N263        N  0.66636382  0.05827727  0.97926100    -0.63700
Mn264      Mn  0.85510578  0.07678894  0.85651894     1.10700
C265        C  0.64883280  0.11464768  0.94817578     0.99300
C266        C  0.94838470  0.07678478  0.04684837     0.99400
N267        N  0.85525311  0.81925145  0.92623526    -0.05900
N268        N  0.90445100  0.77519068  0.93669335    -0.61300
N269        N  0.69767007  0.88758421  0.94251584    -0.05200
N270        N  0.64161273  0.86961842  0.97945116    -0.58000
N271        N  0.70147006  0.85108496  0.88611584    -0.06600
N272        N  0.64630398  0.81167782  0.88178858    -0.60900
N273        N  0.85092256  0.86360523  0.97659599    -0.05500
N274        N  0.89654771  0.85017840  0.02242582    -0.58100
Mn275      Mn  0.80202013  0.83140731  0.83218132     1.20200
Mn276      Mn  0.78784806  0.95211769  0.96953922     1.10100
Cl277      Cl  0.82944125  0.95319404  0.84487359    -0.86000
C278        C  0.92941603  0.79381910  0.99759716     0.96300
C279        C  0.61000090  0.82057387  0.94129931     0.96100
C280        C  0.58458918  0.75713333  0.97058634     0.01300
C281        C  0.52019128  0.73267492  0.94686564     0.04100
C282        C  0.52001861  0.67546655  0.90242349    -0.12000
C283        C  0.58519562  0.64763477  0.87935242     0.23400
C284        C  0.64514212  0.66192081  0.91798896    -0.12500
C285        C  0.63926506  0.70990051  0.97215394     0.04800
C286        C  0.59276710  0.61669440  0.80950978     0.27200
C287        C  0.61652220  0.55048902  0.79843862    -0.13200
C288        C  0.62898629  0.52445933  0.73200824     0.05300
C289        C  0.60507358  0.55831831  0.67528803    -0.09200
C290        C  0.58909123  0.62792599  0.68660087     0.06100
C291        C  0.58197135  0.65614590  0.75305241    -0.13500
Br292      Br  0.73746769  0.63075631  0.88822632    -0.05600
Br293      Br  0.43699420  0.78556359  0.96374967     0.00000
Br294      Br  0.67355138  0.43941145  0.72017672     0.00500
Br295      Br  0.55617346  0.74987237  0.76576873    -0.04000
Br296      Br  0.71870345  0.73238511  0.02577774     0.00600
Br297      Br  0.43371109  0.64164272  0.86587496    -0.03300
Br298      Br  0.62461793  0.49279143  0.87410500    -0.04100
Br299      Br  0.59114984  0.69084119  0.61495297    -0.00100
C300        C  0.06065394  0.72983324  0.73835961     0.01300
C301        C  0.04479089  0.66071810  0.73546044     0.04100
C302        C  0.08968368  0.61594912  0.76459596    -0.12000
C303        C  0.15064728  0.64138225  0.79511821     0.23400
C304        C  0.17622503  0.70543004  0.77839301    -0.12500
C305        C  0.13002068  0.75110326  0.75082783     0.04800
C306        C  0.16671641  0.61498933  0.86129834     0.27200
C307        C  0.13791766  0.64792109  0.92062104    -0.13200
C308        C  0.14135026  0.61789533  0.98335417     0.05300
C309        C  0.16869142  0.55257827  0.98625187    -0.09200
C310        C  0.18254172  0.51590720  0.92447103     0.06100
C311        C  0.19293396  0.54980468  0.86468998    -0.13500
Br312      Br  0.26780319  0.73390886  0.80668503    -0.05600
Br313      Br  0.95732913  0.62883838  0.69947662     0.00000
Br314      Br  0.09895867  0.66186395  0.06295643     0.00500
Br315      Br  0.24069996  0.50630233  0.78750480    -0.04000
Br316      Br  0.15878138  0.84293381  0.73896969     0.00600
Br317      Br  0.05885574  0.52410376  0.77491093    -0.03300
Br318      Br  0.08980721  0.73214748  0.91591377    -0.04100
Br319      Br  0.17200364  0.41942235  0.91887683    -0.00100
C320        C  0.53406230  0.99696946  0.61640587     0.01300
C321        C  0.47083855  0.97666236  0.65037285     0.04100
C322        C  0.45941339  0.99962831  0.71780908    -0.12000
C323        C  0.51705682  0.02481034  0.75350201     0.23400
C324        C  0.58517869  0.01290586  0.72504549    -0.12500
C325        C  0.59307631  0.99956838  0.65514301     0.04800
C326        C  0.50907675  0.06622646  0.81704987     0.27200
C327        C  0.50185153  0.03532555  0.87945979    -0.13200
C328        C  0.52904376  0.06832858  0.93679577     0.05300
C329        C  0.57551681  0.12298023  0.92720803    -0.09200
C330        C  0.56532988  0.16276911  0.87156168     0.06100
C331        C  0.52970781  0.13465039  0.81670739    -0.13500
Br332      Br  0.66397342  0.01113784  0.78194966    -0.05600
Br333      Br  0.39710561  0.92973342  0.60377113     0.00000
Br334      Br  0.51379375  0.03278298  0.02503143     0.00500
Br335      Br  0.51638892  0.18849963  0.74051032    -0.04000
Br336      Br  0.67899929  0.97776742  0.60963714     0.00600
Br337      Br  0.36559667  0.00538502  0.75543871    -0.03300
Br338      Br  0.46531524  0.94544425  0.88491369    -0.04100
Br339      Br  0.61450738  0.24739104  0.86292637    -0.00100
C340        C  0.67847096  0.65592401  0.22809178     0.01300
C341        C  0.72892431  0.60173482  0.21935493     0.04100
C342        C  0.79996150  0.61532021  0.21040612    -0.12000
C343        C  0.81992848  0.67897675  0.19136138     0.23400
C344        C  0.77177573  0.73345436  0.19689516    -0.12500
C345        C  0.70083378  0.72194256  0.21565663     0.04800
C346        C  0.88284709  0.68307929  0.14739181     0.27200
C347        C  0.93501444  0.72986347  0.16368882    -0.13200
C348        C  0.96638328  0.76458021  0.11086020     0.05300
C349        C  0.95304986  0.74342307  0.04365319    -0.09200
C350        C  0.92740333  0.67771342  0.03189733     0.06100
C351        C  0.88335103  0.65154240  0.08192335    -0.13500
Br352      Br  0.80011656  0.82323409  0.17290973    -0.05600
Br353      Br  0.70438072  0.50656964  0.20721657     0.00000
Br354      Br  0.00901639  0.84909470  0.13212632     0.00500
Br355      Br  0.81617652  0.58294439  0.05483736    -0.04000
Br356      Br  0.63406405  0.79364227  0.20746345     0.00600
Br357      Br  0.86983595  0.54379247  0.21063768    -0.03300
Br358      Br  0.94938039  0.75690231  0.25657517    -0.04100
Br359      Br  0.93894435  0.63069880  0.94495398    -0.00100
C360        C  0.06937610  0.16164057  0.70074134     0.01300
C361        C  0.02652499  0.20337379  0.74417011     0.04100
C362        C  0.95717132  0.21757233  0.72669983    -0.12000
C363        C  0.93343575  0.19423410  0.66285772     0.23400
C364        C  0.96621073  0.13374552  0.63539646    -0.12500
C365        C  0.03200686  0.11493325  0.65853364     0.04800
C366        C  0.88309055  0.23566017  0.62335103     0.27200
C367        C  0.82701530  0.27083240  0.65714896    -0.13200
C368        C  0.75912464  0.24228865  0.65118261     0.05300
C369        C  0.75572067  0.17854407  0.61932073    -0.09200
C370        C  0.79858787  0.17413656  0.55934757     0.06100
C371        C  0.86352451  0.20891595  0.56046007    -0.13500
Br372      Br  0.92718348  0.07297522  0.56691085    -0.05600
Br373      Br  0.06295989  0.24435511  0.82506175     0.00000
Br374      Br  0.67666155  0.27579856  0.69684175     0.00500
Br375      Br  0.92574017  0.21836199  0.48321150    -0.04000
Br376      Br  0.07412077  0.03267434  0.61819463     0.00600
Br377      Br  0.89399212  0.25539864  0.79633589    -0.03300
Br378      Br  0.83999730  0.36349080  0.68410960    -0.04100
Br379      Br  0.77255182  0.12109347  0.48147009    -0.00100
C380        C  0.95170103  0.12545487  0.10426191     0.01300
C381        C  0.94676210  0.10238242  0.17124821     0.04100
C382        C  0.92159296  0.14726365  0.22292412    -0.12000
C383        C  0.88754891  0.20530267  0.20287372     0.23400
C384        C  0.93072513  0.23607488  0.15416408    -0.12500
C385        C  0.94779991  0.19641676  0.09612577     0.04800
C386        C  0.81303163  0.19418657  0.17791147     0.27200
C387        C  0.77242878  0.13443303  0.19028531    -0.13200
C388        C  0.71086796  0.12142559  0.15463354     0.05300
C389        C  0.68024794  0.17289149  0.11975718    -0.09200
C390        C  0.72890588  0.21798807  0.09109562     0.06100
C391        C  0.78639460  0.23785385  0.12910838    -0.13500
Br392      Br  0.96867516  0.32472431  0.16825585    -0.05600
Br393      Br  0.96681077  0.01188818  0.19314509     0.00000
Br394      Br  0.67107903  0.03231550  0.14853269     0.00500
Br395      Br  0.80647382  0.33311220  0.12957463    -0.04000
Br396      Br  0.95506514  0.24161338  0.01156720     0.00600
Br397      Br  0.93938222  0.13232008  0.31620454    -0.01800
Br398      Br  0.78627962  0.07526429  0.26315857    -0.04100
Br399      Br  0.70885974  0.26710147  0.01245100    -0.00100
C400        C  0.73607301  0.76028059  0.58436165     0.01300
C401        C  0.76697984  0.69783409  0.59861734     0.04100
C402        C  0.81293005  0.66804218  0.55012658    -0.12000
C403        C  0.83787180  0.70729977  0.49750346     0.23400
C404        C  0.79646352  0.75964474  0.47563592    -0.12500
C405        C  0.73961097  0.78133579  0.51740571     0.04800
C406        C  0.91298623  0.70267354  0.48051929     0.27200
C407        C  0.96227017  0.72711583  0.52723685    -0.13200
C408        C  0.02817388  0.69487036  0.53047549     0.05300
C409        C  0.04363132  0.64152487  0.48432625    -0.09200
C410        C  0.00498119  0.64144632  0.42333261     0.06100
C411        C  0.93550682  0.66163230  0.42652093    -0.13500
Br412      Br  0.82120814  0.80529393  0.39452316    -0.05600
Br413      Br  0.76152197  0.65877672  0.68609652     0.00000
Br414      Br  0.10227335  0.73274031  0.58236227     0.00500
Br415      Br  0.86957843  0.62442811  0.36444346    -0.04000
Br416      Br  0.67416977  0.84635468  0.48819114     0.00600
Br417      Br  0.85091626  0.57931364  0.55965008    -0.03300
Br418      Br  0.93867278  0.80570595  0.58141030    -0.04100
Br419      Br  0.04577447  0.62038587  0.33474071    -0.00100
C420        C  0.13567173  0.08391937  0.14879197     0.01300
C421        C  0.16053112  0.01676096  0.14090990     0.04100
C422        C  0.19561195  0.99590628  0.08075829    -0.12000
C423        C  0.18120222  0.02802745  0.02138537     0.23400
C424        C  0.14051548  0.08771453  0.02582009    -0.12500
C425        C  0.12307252  0.11822111  0.08875860     0.04800
C426        C  0.19363924  0.99224576  0.95520971     0.27200
C427        C  0.14327201  0.94318249  0.93929739    -0.13200
C428        C  0.10343600  0.95057083  0.88263004     0.05300
C429        C  0.12243628  0.00058920  0.83699183    -0.09200
C430        C  0.18791088  0.03384851  0.84296674     0.06100
C431        C  0.22528452  0.02773185  0.90248571    -0.13500
Br432      Br  0.11364988  0.13466093  0.94792014    -0.05600
Br433      Br  0.13606096  0.94777299  0.20338159     0.00000
Br434      Br  0.01406143  0.90475963  0.87942917     0.00500
Br435      Br  0.30620885  0.08307969  0.92151003    -0.04000
Br436      Br  0.10916657  0.21489234  0.08945400     0.00600
Br437      Br  0.26410938  0.92467071  0.08075547    -0.03300
Br438      Br  0.11642209  0.87766298  0.00309549    -0.04100
Br439      Br  0.21544175  0.10186092  0.78195955    -0.00100
loop_ 
_geom_bond_atom_site_label_1 
_geom_bond_atom_site_label_2 
_geom_bond_distance 
_geom_bond_site_symmetry_2 
_ccdc_geom_bond_type 
C1            C2   1.534       .  S
C1            C7   1.536       .  S
C1            C5   1.576       .  S
C1          C420   1.528       .  S
C2            H9   1.065       .  S
C2            C3   1.337       .  D
C3            C4   1.622       .  S
C3           C49   1.585       .  S
C4            C8   1.570       .  S
C4            C6   1.629       .  S
C4           H10   1.109       .  S
C5           H11   1.077       .  S
C5            C6   1.376       .  D
C6           C13   1.642       .  S
C7           H12   1.088       .  S
C7            C8   1.322       .  D
C8          N205   1.456       .  S
C13          C15   1.536       .  S
C13          C17   1.519       .  S
C13          C16   1.661       .  S
C14          C41   1.603       .  S
C14          C18   1.515       .  S
C14          C20   1.494       .  S
C14          C19   1.643       .  S
C15          C23   1.383       .  A
C15          C18   1.390       .  A
C16          C27   1.449   1_455  A
C16          C19   1.444       .  A
C17          C31   1.376       .  A
C17          C20   1.389       .  A
C18          C21   1.380       .  A
C19          C25   1.446   1_455  A
C20          C28   1.364       .  A
C21          N22   1.346       .  A
C21          H34   1.067       .  S
N22         C167   1.447       .  S
N22          C23   1.352       .  A
C23          H24   1.072       .  S
C25          N26   1.388       .  A
C25          H35   1.080       .  S
N26          C27   1.395       .  A
N26         N108   1.491       .  S
C27          H33   1.068       .  S
C28          N29   1.333       .  A
C28          H30   1.072       .  S
N29          C85   1.421       .  S
N29          C31   1.345       .  A
C31          H32   1.078       .  S
C36          C37   1.519       .  S
C36          C42   1.597       .  S
C36          C40   1.524       .  S
C36         C409   1.540       .  S
C37          H44   1.085       .  S
C37          C38   1.333       .  D
C38          C39   1.622       .  S
C38         C142   1.587       .  S
C39          C43   1.597       .  S
C39          C41   1.634       .  S
C39          H45   1.106       .  S
C40          H46   1.082       .  S
C40          C41   1.316       .  D
C42          H47   1.085       .  S
C42          C43   1.412       .  D
C43         N228   1.524       .  S
C48         C132   1.500       .  S
C48          C50   1.522       .  S
C48          C52   1.536       .  S
C48          C51   1.540   1_545  S
C49          C53   1.559       .  S
C49          C55   1.492       .  S
C49          C54   1.681       .  S
C50          C58   1.382       .  A
C50          C53   1.368       .  A
C51          C62   1.394       .  A
C51          C54   1.422   1_565  A
C52          C66   1.385       .  A
C52          C55   1.372       .  A
C53          C56   1.395       .  A
C54          C60   1.459   1_545  A
C55          C63   1.363       .  A
C56          N57   1.363       .  A
C56          H69   1.063       .  S
N57          C76   1.471       .  S
N57          C58   1.351       .  A
C58          H59   1.077       .  S
C60          N61   1.404       .  A
C60          H70   1.079       .  S
N61          C62   1.358       .  A
N61         N155   1.465       .  S
C62          H68   1.078       .  S
C63          N64   1.341       .  A
C63          H65   1.065       .  S
N64          C88   1.432       .  S
N64          C66   1.345       .  A
C66          H67   1.078       .  S
C71          C72   1.556       .  S
C71          C77   1.544       .  S
C71          C75   1.549       .  S
C71         C389   1.534       .  S
C72          H79   1.075       .  S
C72          C73   1.337       .  D
C73          C74   1.622       .  S
C73          C96   1.621       .  S
C74          C78   1.651       .  S
C74          C76   1.562       .  S
C74          H80   1.109       .  S
C75          H81   1.079       .  S
C75          C76   1.369       .  D
C77          H82   1.082       .  S
C77          C78   1.347       .  D
C78         C189   1.623       .  S
C83          C84   1.552       .  S
C83          C89   1.566       .  S
C83          C87   1.546       .  S
C83         C360   1.528       .  S
C84          H91   1.080       .  S
C84          C85   1.332       .  D
C85          C86   1.498       .  S
C86          C90   1.573       .  S
C86          C88   1.526       .  S
C86          H92   1.112       .  S
C87          H93   1.076       .  S
C87          C88   1.340       .  D
C89          H94   1.080       .  S
C89          C90   1.372       .  D
C90         C213   1.537       .  S
C95         C179   1.661       .  S
C95          C97   1.501       .  S
C95          C99   1.557       .  S
C95          C98   1.652       .  S
C96         C100   1.500       .  S
C96         C102   1.537       .  S
C96         C101   1.643       .  S
C97         C105   1.357       .  A
C97         C100   1.372       .  A
C98         C109   1.451       .  A
C98         C101   1.447       .  A
C99         C113   1.390       .  A
C99         C102   1.411       .  A
C100        C103   1.362       .  A
C101        C107   1.441       .  A
C102        C110   1.380       .  A
C103        N104   1.337       .  A
C103        H116   1.062       .  S
N104        C123   1.406       .  S
N104        C105   1.337       .  A
C105        H106   1.080       .  S
C107        N108   1.390       .  A
C107        H117   1.079       .  S
N108        C109   1.399       .  A
C109        H115   1.082       .  S
C110        N111   1.359       .  A
C110        H112   1.078       .  S
N111        C135   1.446       .  S
N111        C113   1.361       .  A
C113        H114   1.082       .  S
C118        C119   1.578       .  S
C118        C124   1.547       .  S
C118        C122   1.523       .  S
C118        C340   1.519       .  S
C119        H126   1.082       .  S
C119        C120   1.388       .  D
C120        C121   1.569       .  S
C120        C143   1.542       .  S
C121        C125   1.517       .  S
C121        C123   1.501       .  S
C121        H127   1.110       .  S
C122        H128   1.089       .  S
C122        C123   1.330       .  D
C124        H129   1.087       .  S
C124        C125   1.343       .  D
C125        N198   1.435       .  S
C130        C131   1.518       .  S
C130        C136   1.542       .  S
C130        C134   1.578       .  S
C130        C320   1.530   1_545  S
C131        H138   1.075   1_545  S
C131        C132   1.343       .  D
C132        C133   1.566       .  S
C133        C137   1.522       .  S
C133        C135   1.514       .  S
C133        H139   1.111       .  S
C134        H140   1.075       .  S
C134        C135   1.383       .  D
C136        H141   1.075       .  S
C136        C137   1.342       .  D
C137        N221   1.437       .  S
C142        C144   1.495       .  S
C142        C146   1.551       .  S
C142        C145   1.682       .  S
C143        C147   1.531       .  S
C143        C149   1.553       .  S
C143        C148   1.547       .  S
C144        C152   1.359       .  A
C144        C147   1.368       .  A
C145        C156   1.455       .  A
C145        C148   1.431       .  A
C146        C160   1.401       .  A
C146        C149   1.369       .  A
C147        C150   1.377       .  A
C148        C154   1.395       .  A
C149        C157   1.390       .  A
C150        N151   1.348       .  A
C150        H163   1.079       .  S
N151        C170   1.428       .  S
N151        C152   1.347       .  A
C152        H153   1.061       .  S
C154        N155   1.366       .  A
C154        H164   1.082       .  S
N155        C156   1.402       .  A
C156        H162   1.081       .  S
C157        N158   1.366       .  A
C157        H159   1.080       .  S
N158        C182   1.484       .  S
N158        C160   1.363       .  A
C160        H161   1.063       .  S
C165        C166   1.560       .  S
C165        C171   1.528       .  S
C165        C169   1.548       .  S
C165        C309   1.530   1_554  S
C166        H173   1.085       .  S
C166        C167   1.371       .  D
C167        C168   1.528       .  S
C168        C172   1.549       .  S
C168        C170   1.532       .  S
C168        H174   1.111       .  S
C169        H175   1.083       .  S
C169        C170   1.356       .  D
C171        H176   1.076   1_554  S
C171        C172   1.343       .  D
C172        C190   1.514       .  S
C177        C178   1.585       .  S
C177        C183   1.531       .  S
C177        C181   1.553       .  S
C177        C289   1.567       .  S
C178        H185   1.085       .  S
C178        C179   1.386       .  D
C179        C180   1.642       .  S
C180        C184   1.606       .  S
C180        C182   1.572       .  S
C180        H186   1.110       .  S
C181        H187   1.063       .  S
C181        C182   1.351       .  D
C183        H188   1.085       .  S
C183        C184   1.333       .  D
C184        C212   1.568       .  S
C189        C191   1.546       .  S
C189        C193   1.539       .  S
C189        C192   1.679       .  S
C190        C194   1.501       .  S
C190        C196   1.505       .  S
C190        C195   1.557       .  S
C191        C199   1.385       .  A
C191        C194   1.380       .  A
C192        C203   1.465   1_554  A
C192        C195   1.426       .  A
C193        C207   1.382       .  A
C193        C196   1.362       .  A
C194        C197   1.361       .  A
C195        C201   1.399   1_554  A
C196        C204   1.363       .  A
C197        N198   1.346       .  A
C197        H210   1.072       .  S
N198        C199   1.363       .  A
C199        H200   1.081       .  S
C201        N202   1.347       .  A
C201        H211   1.069       .  S
N202        C203   1.409       .  A
N202        N225   1.472       .  S
C203        H209   1.069       .  S
C204        N205   1.345       .  A
C204        H206   1.066       .  S
N205        C207   1.369       .  A
C207        H208   1.078       .  S
C212        C214   1.518       .  S
C212        C216   1.586       .  S
C212        C215   1.651       .  S
C213        C217   1.520       .  S
C213        C219   1.560       .  S
C213        C218   1.584       .  S
C214        C222   1.381       .  A
C214        C217   1.359       .  A
C215        C226   1.448       .  A
C215        C218   1.423       .  A
C216        C230   1.420       .  A
C216        C219   1.374       .  A
C217        C220   1.374       .  A
C218        C224   1.417       .  A
C219        C227   1.410       .  A
C220        N221   1.345       .  A
C220        H233   1.079       .  S
N221        C222   1.354       .  A
C222        H223   1.066       .  S
C224        N225   1.381       .  A
C224        H234   1.082       .  S
N225        C226   1.395       .  A
C226        H232   1.081       .  S
C227        N228   1.374       .  A
C227        H229   1.076       .  S
N228        C230   1.388       .  A
C230        H231   1.077       .  S
N235        N236   1.319   1_655  A
N235        N241   1.312       .  A
N235       Mn264   2.204       .  S
N236        C243   1.355       .  A
N237        N239   1.312       .  A
N237        N238   1.320       .  A
N237       Mn253   2.198   1_545  S
N238        C244   1.350       .  A
N239        N240   1.319       .  A
N239       Mn264   2.209       .  S
N240        C244   1.363       .  A
N241        N242   1.319   1_645  A
N241       Mn253   2.170   1_545  S
N242        C243   1.347   1_565  A
C243        C429   1.468       .  S
C244        C369   1.495       .  S
N245        N251   1.314       .  A
N245        N246   1.317       .  A
N245       Mn275   2.164       .  S
N246        C254   1.348       .  A
N247        N248   1.323       .  A
N247        N249   1.309       .  A
N247       Mn253   2.179       .  S
N248        C255   1.352   1_655  A
N249        N250   1.311       .  A
N249       Mn275   2.170       .  S
N250        C255   1.348   1_655  A
N251        N252   1.314       .  A
N251       Mn253   2.199       .  S
N252        C254   1.352       .  A
Mn253      Cl277   2.549       .  S
C254        C400   1.466       .  S
C255        C300   1.466       .  S
N256        N257   1.316       .  A
N256        N262   1.314       .  A
N256       Mn264   2.221       .  S
N257        C265   1.362       .  A
N258        N260   1.309       .  A
N258        N259   1.313   1_556  A
N258       Mn276   2.160   1_545  S
N259        C266   1.352       .  A
N260        N261   1.312       .  A
N260       Mn264   2.177       .  S
N261        C266   1.349   1_556  A
N262        N263   1.313       .  A
N262       Mn276   2.165   1_545  S
N263        C265   1.351       .  A
Mn264      Cl277   2.509   1_545  S
C265        C329   1.481       .  S
C266        C380   1.468       .  S
N267        N268   1.314       .  A
N267        N273   1.307       .  A
N267       Mn275   2.178       .  S
N268        C278   1.352       .  A
N269        N270   1.327       .  A
N269        N271   1.309       .  A
N269       Mn276   2.206       .  S
N270        C279   1.362       .  A
N271        N272   1.310       .  A
N271       Mn275   2.186       .  S
N272        C279   1.352       .  A
N273        N274   1.315   1_556  A
N273       Mn276   2.149       .  S
N274        C278   1.354   1_554  A
Mn275      Cl277   2.482       .  S
Mn276      Cl277   2.570       .  S
C278        C349   1.467   1_556  S
C279        C280   1.482       .  S
C280        C281   1.405       .  A
C280        C285   1.408       .  A
C281        C282   1.412       .  A
C281       Br293   1.917       .  S
C282        C283   1.414       .  A
C282       Br297   1.925       .  S
C283        C284   1.418       .  A
C283        C286   1.496       .  S
C284        C285   1.410       .  A
C284       Br292   1.929       .  S
C285       Br296   1.920   1_556  S
C286        C287   1.402       .  A
C286        C291   1.415       .  A
C287        C288   1.409       .  A
C287       Br298   1.937       .  S
C288        C289   1.424       .  A
C288       Br294   1.900       .  S
C289        C290   1.427       .  A
C290        C291   1.414       .  A
C290       Br299   1.931       .  S
C291       Br295   1.936       .  S
C300        C301   1.406       .  A
C300        C305   1.410       .  A
C301        C302   1.394       .  A
C301       Br313   1.928   1_455  S
C302        C303   1.409       .  A
C302       Br317   1.933       .  S
C303        C304   1.410       .  A
C303        C306   1.476       .  S
C304        C305   1.408       .  A
C304       Br312   1.924       .  S
C305       Br316   1.926       .  S
C306        C307   1.418       .  A
C306        C311   1.398       .  A
C307        C308   1.406       .  A
C307       Br318   1.922       .  S
C308        C309   1.407       .  A
C308       Br314   1.927   1_556  S
C309        C310   1.418       .  A
C310        C311   1.395       .  A
C310       Br319   1.929       .  S
C311       Br315   1.929       .  S
C320        C321   1.421       .  A
C320        C325   1.383       .  A
C321        C322   1.406       .  A
C321       Br333   1.924       .  S
C322        C323   1.406   1_565  A
C322       Br337   1.911   1_565  S
C323        C324   1.411       .  A
C323        C326   1.482       .  S
C324        C325   1.404   1_545  A
C324       Br332   1.910       .  S
C325       Br336   1.882       .  S
C326        C327   1.406       .  A
C326        C331   1.415       .  A
C327        C328   1.404       .  A
C327       Br338   1.921   1_545  S
C328        C329   1.412       .  A
C328       Br334   1.926   1_556  S
C329        C330   1.404       .  A
C330        C331   1.399       .  A
C330       Br339   1.933       .  S
C331       Br335   1.913       .  S
C340        C341   1.449       .  A
C340        C345   1.407       .  A
C341        C342   1.382       .  A
C341       Br353   1.956       .  S
C342        C343   1.384       .  A
C342       Br357   1.953       .  S
C343        C344   1.421       .  A
C343        C346   1.458       .  S
C344        C345   1.406       .  A
C344       Br352   1.936       .  S
C345       Br356   1.931       .  S
C346        C347   1.394       .  A
C346        C351   1.419       .  A
C347        C348   1.393       .  A
C347       Br358   1.928       .  S
C348        C349   1.413       .  A
C348       Br354   1.902   1_655  S
C349        C350   1.407       .  A
C350        C351   1.391       .  A
C350       Br359   1.935   1_554  S
C351       Br355   1.938       .  S
C360        C361   1.413       .  A
C360        C365   1.430       .  A
C361        C362   1.409   1_455  A
C361       Br373   1.921       .  S
C362        C363   1.420       .  A
C362       Br377   1.930       .  S
C363        C364   1.437       .  A
C363        C366   1.525       .  S
C364        C365   1.406   1_655  A
C364       Br372   1.947       .  S
C365       Br376   1.956       .  S
C366        C367   1.412       .  A
C366        C371   1.399       .  A
C367        C368   1.414       .  A
C367       Br378   1.917       .  S
C368        C369   1.397       .  A
C368       Br374   1.893       .  S
C369        C370   1.417       .  A
C370        C371   1.413       .  A
C370       Br379   1.915       .  S
C371       Br375   1.916       .  S
C380        C381   1.423       .  A
C380        C385   1.431       .  A
C381        C382   1.405       .  A
C381       Br393   1.913       .  S
C382        C383   1.406       .  A
C382       Br397   1.928       .  S
C383        C384   1.402       .  A
C383        C386   1.530       .  S
C384        C385   1.399       .  A
C384       Br392   1.917       .  S
C385       Br396   1.935       .  S
C386        C387   1.439       .  A
C386        C391   1.434       .  A
C387        C388   1.407       .  A
C387       Br398   1.927       .  S
C388        C389   1.400       .  A
C388       Br394   1.926       .  S
C389        C390   1.407       .  A
C390        C391   1.397       .  A
C390       Br399   1.925       .  S
C391       Br395   1.932       .  S
C400        C401   1.421       .  A
C400        C405   1.408       .  A
C401        C402   1.393       .  A
C401       Br413   1.929       .  S
C402        C403   1.397       .  A
C402       Br417   1.931       .  S
C403        C404   1.402       .  A
C403        C406   1.458       .  S
C404        C405   1.397       .  A
C404       Br412   1.922       .  S
C405       Br416   1.921       .  S
C406        C407   1.413       .  A
C406        C411   1.378       .  A
C407        C408   1.416   1_655  A
C407       Br418   1.908       .  S
C408        C409   1.399       .  A
C408       Br414   1.909       .  S
C409        C410   1.438       .  A
C410        C411   1.381   1_455  A
C410       Br419   1.926       .  S
C411       Br415   1.915       .  S
C420        C421   1.421       .  A
C420        C425   1.425       .  A
C421        C422   1.395   1_545  A
C421       Br433   1.930   1_545  S
C422        C423   1.399   1_565  A
C422       Br437   1.931       .  S
C423        C424   1.419       .  A
C423        C426   1.480   1_544  S
C424        C425   1.396       .  A
C424       Br432   1.924   1_554  S
C425       Br436   1.943       .  S
C426        C427   1.399       .  A
C426        C431   1.401   1_565  A
C427        C428   1.391       .  A
C427       Br438   1.908   1_556  S
C428        C429   1.409   1_565  A
C428       Br434   1.926       .  S
C429        C430   1.413       .  A
C430        C431   1.410       .  A
C430       Br439   1.910       .  S
C431       Br435   1.927       .  S
